@<TRIPOS>MOLECULE
Name: Molecule_10 Comments:
 26 25 0 0 0
SMALL
GASTEIGER

@<TRIPOS>ATOM
      1 C          -0.0000    0.0000    0.8050 C.3     1  LIG1       -0.0328
      2 C          -0.0000   -0.0000   -0.8050 C.3     1  LIG1       -0.0328
      3 C           0.0513   -1.4395   -1.3838 C.3     1  LIG1       -0.0596
      4 C          -1.2723    0.6753   -1.3838 C.3     1  LIG1       -0.0596
      5 C           1.2209    0.7642   -1.3838 C.3     1  LIG1       -0.0596
      6 H           0.0504   -1.4136   -2.4955 H       1  LIG1        0.0235
      7 H           0.9731   -1.9754   -1.0820 H       1  LIG1        0.0235
      8 H          -0.8299   -2.0397   -1.0819 H       1  LIG1        0.0235
      9 H          -1.2494    0.6632   -2.4955 H       1  LIG1        0.0235
     10 H          -2.1973    0.1450   -1.0820 H       1  LIG1        0.0235
     11 H          -1.3515    1.7386   -1.0819 H       1  LIG1        0.0235
     12 H           1.1990    0.7504   -2.4955 H       1  LIG1        0.0235
     13 H           1.2242    1.8304   -1.0820 H       1  LIG1        0.0235
     14 H           2.1814    0.3012   -1.0819 H       1  LIG1        0.0235
     15 C          -0.0512    1.4395    1.3838 C.3     1  LIG1       -0.0596
     16 C          -1.2210   -0.7641    1.3838 C.3     1  LIG1       -0.0596
     17 C           1.2722   -0.6754    1.3838 C.3     1  LIG1       -0.0596
     18 H          -0.0503    1.4136    2.4955 H       1  LIG1        0.0235
     19 H           0.8301    2.0396    1.0820 H       1  LIG1        0.0235
     20 H          -0.9728    1.9755    1.0819 H       1  LIG1        0.0235
     21 H          -1.1991   -0.7504    2.4955 H       1  LIG1        0.0235
     22 H          -2.1814   -0.3009    1.0820 H       1  LIG1        0.0235
     23 H          -1.2245   -1.8303    1.0819 H       1  LIG1        0.0235
     24 H           1.2494   -0.6633    2.4955 H       1  LIG1        0.0235
     25 H           1.3513   -1.7387    1.0820 H       1  LIG1        0.0235
     26 H           2.1973   -0.1453    1.0819 H       1  LIG1        0.0235
@<TRIPOS>BOND
     1     6     3    1
     2     9     4    1
     3    12     5    1
     4     4    10    1
     5     4    11    1
     6     4     2    1
     7     3     7    1
     8     3     8    1
     9     3     2    1
    10     5    13    1
    11     5    14    1
    12     5     2    1
    13     2     1    1
    14     1    15    1
    15     1    16    1
    16     1    17    1
    17    20    15    1
    18    23    16    1
    19    26    17    1
    20    19    15    1
    21    22    16    1
    22    25    17    1
    23    15    18    1
    24    16    21    1
    25    17    24    1
