@<TRIPOS>MOLECULE
Name: Molecule_30b Comments:
 8 7 0 0 0
SMALL
GASTEIGER

@<TRIPOS>ATOM
      1 C           0.1435    0.7479    0.0030 C.3     1  LIG1       -0.0681
      2 C          -0.1435   -0.7479   -0.0030 C.3     1  LIG1       -0.0681
      3 H           1.2449    0.8922    0.0258 H       1  LIG1        0.0227
      4 H          -1.2449   -0.8922   -0.0258 H       1  LIG1        0.0227
      5 H          -0.3195    1.2100    0.8964 H       1  LIG1        0.0227
      6 H          -0.2820    1.2100   -0.9088 H       1  LIG1        0.0227
      7 H           0.2820   -1.2100    0.9088 H       1  LIG1        0.0227
      8 H           0.3195   -1.2100   -0.8964 H       1  LIG1        0.0227
@<TRIPOS>BOND
     1     6     1    1
     2     8     2    1
     3     4     2    1
     4     2     1    1
     5     2     7    1
     6     1     3    1
     7     1     5    1
