@<TRIPOS>MOLECULE
Name: Molecule_29 Comments:
 8 7 0 0 0
SMALL
GASTEIGER

@<TRIPOS>ATOM
      1 C           0.0000    0.0000    0.7787 C.3     1  LIG1        0.2364
      2 C          -0.0000   -0.0000   -0.7787 C.3     1  LIG1        0.2364
      3 CL         -0.7373    1.4989    1.4056 Cl      1  LIG1       -0.0788
      4 CL          0.7373   -1.4989   -1.4056 Cl      1  LIG1       -0.0788
      5 CL          1.6667   -0.1109    1.4056 Cl      1  LIG1       -0.0788
      6 CL         -0.9294   -1.3880    1.4056 Cl      1  LIG1       -0.0788
      7 CL          0.9294    1.3880   -1.4056 Cl      1  LIG1       -0.0788
      8 CL         -1.6667    0.1109   -1.4056 Cl      1  LIG1       -0.0788
@<TRIPOS>BOND
     1     4     2    1
     2     7     2    1
     3     8     2    1
     4     2     1    1
     5     1     3    1
     6     1     5    1
     7     1     6    1
