@<TRIPOS>MOLECULE
Name: Molecule_31 Comments:
 40 43 0 0 0
SMALL
GASTEIGER

@<TRIPOS>ATOM
      1 C          -0.0245    1.3503   -0.6088 C.3     1  LIG1        0.0000
      2 C          -0.0245   -1.3503   -0.6088 C.3     1  LIG1        0.0000
      3 B          -3.2938    0.0000    0.3625 B       1  LIG1        0.0000
      4 B          -0.9930    1.4424    0.6909 B       1  LIG1        0.0000
      5 B           0.6608    1.4349    0.8809 B       1  LIG1        0.0000
      6 B           0.7876    0.0000   -0.9377 B       1  LIG1        0.0000
      7 B          -0.9930   -1.4424    0.6909 B       1  LIG1        0.0000
      8 B          -1.8032    0.0000    1.1095 B       1  LIG1        0.0000
      9 B           0.4579    0.7515    4.5647 B       1  LIG1        0.0000
     10 B           1.4974    0.0000    0.5681 B       1  LIG1        0.0000
     11 B           0.6608   -1.4349    0.8809 B       1  LIG1        0.0000
     12 B           0.4579   -0.7515    4.5647 B       1  LIG1        0.0000
     13 H          -3.3648    0.0000   -0.8170 H       1  LIG1        0.0000
     14 H          -1.4931    2.4903    0.9489 H       1  LIG1        0.0000
     15 H           1.2365    2.4505    1.0942 H       1  LIG1        0.0000
     16 H           1.5343   -0.0000   -1.8672 H       1  LIG1        0.0000
     17 H          -1.4931   -2.4902    0.9489 H       1  LIG1        0.0000
     18 H          -1.9780    0.0000    2.2870 H       1  LIG1        0.0000
     19 H          -0.3595    1.3443    3.9522 H       1  LIG1        0.0000
     20 H           2.6877    0.0000    0.5298 H       1  LIG1        0.0000
     21 H           1.2365   -2.4504    1.0942 H       1  LIG1        0.0000
     22 H          -0.3596   -1.3443    3.9522 H       1  LIG1        0.0000
     23 N           0.1768    2.5072   -1.5278 N.3     1  LIG1        0.0000
     24 N           0.1767   -2.5072   -1.5278 N.3     1  LIG1        0.0000
     25 C          -0.9414    3.4582   -1.5870 C.3     1  LIG1        0.0000
     26 H          -0.9861    4.0777   -0.6657 H       1  LIG1        0.0000
     27 H          -0.8198    4.1344   -2.4599 H       1  LIG1        0.0000
     28 H          -1.9007    2.9137   -1.7213 H       1  LIG1        0.0000
     29 C           1.4803    3.1905   -1.4751 C.3     1  LIG1        0.0000
     30 H           1.6140    3.8118   -2.3859 H       1  LIG1        0.0000
     31 H           1.5481    3.8628   -0.5938 H       1  LIG1        0.0000
     32 H           2.3104    2.4540   -1.4528 H       1  LIG1        0.0000
     33 C           1.4803   -3.1905   -1.4751 C.3     1  LIG1        0.0000
     34 H           1.5481   -3.8628   -0.5938 H       1  LIG1        0.0000
     35 H           1.6140   -3.8118   -2.3859 H       1  LIG1        0.0000
     36 H           2.3104   -2.4540   -1.4528 H       1  LIG1        0.0000
     37 C          -0.9415   -3.4582   -1.5869 C.3     1  LIG1        0.0000
     38 H          -0.8198   -4.1344   -2.4599 H       1  LIG1        0.0000
     39 H          -0.9861   -4.0776   -0.6657 H       1  LIG1        0.0000
     40 H          -1.9008   -2.9137   -1.7213 H       1  LIG1        0.0000
@<TRIPOS>BOND
     1    27    25    1
     2    38    37    1
     3    30    29    1
     4    35    33    1
     5    16     6    1
     6    28    25    1
     7    40    37    1
     8    25    23    1
     9    25    26    1
    10    37    24    1
    11    37    39    1
    12    23    29    1
    13    23     1    1
    14    24    33    1
    15    24     2    1
    16    33    36    1
    17    33    34    1
    18    29    32    1
    19    29    31    1
    20     6     1    1
    21     6     2    1
    22     6    10    1
    23    13     3    1
    24     1     4    1
    25     1     5    1
    26     2     7    1
    27     2    11    1
    28     3     8    1
    29    20    10    1
    30    10    11    1
    31    10     5    1
    32     4     5    1
    33     4    14    1
    34     4     8    1
    35     7    11    1
    36     7    17    1
    37     7     8    1
    38    11    21    1
    39     5    15    1
    40     8    18    1
    41    19     9    1
    42    22    12    1
    43     9    12    2
