@<TRIPOS>MOLECULE
Name: Molecule_14 Comments:
 14 13 0 0 0
SMALL
GASTEIGER

@<TRIPOS>ATOM
      1 C           0.6971    1.6547    0.7572 C.3     1  LIG1       -0.0653
      2 C           0.7049    0.2662    0.1218 C.3     1  LIG1       -0.0562
      3 C          -0.7049   -0.2662   -0.1218 C.3     1  LIG1       -0.0562
      4 H           1.7228    2.0203    0.9245 H       1  LIG1        0.0230
      5 H           0.1852    1.6428    1.7270 H       1  LIG1        0.0230
      6 H           0.1852    2.3808    0.1143 H       1  LIG1        0.0230
      7 H           1.2486   -0.4294    0.7722 H       1  LIG1        0.0263
      8 H           1.2486    0.3037   -0.8297 H       1  LIG1        0.0263
      9 C          -0.6971   -1.6547   -0.7572 C.3     1  LIG1       -0.0653
     10 H          -1.7228   -2.0203   -0.9245 H       1  LIG1        0.0230
     11 H          -1.2486   -0.3037    0.8297 H       1  LIG1        0.0263
     12 H          -1.2486    0.4294   -0.7722 H       1  LIG1        0.0263
     13 H          -0.1852   -2.3808   -0.1143 H       1  LIG1        0.0230
     14 H          -0.1852   -1.6428   -1.7270 H       1  LIG1        0.0230
@<TRIPOS>BOND
     1    14     9    1
     2    10     9    1
     3     8     2    1
     4    12     3    1
     5     9     3    1
     6     9    13    1
     7     3     2    1
     8     3    11    1
     9     6     1    1
    10     2     1    1
    11     2     7    1
    12     1     4    1
    13     1     5    1
