@<TRIPOS>MOLECULE
Name: Molecule_8 Comments:
 68 73 0 0 0
SMALL
GASTEIGER

@<TRIPOS>ATOM
      1 C          -0.6211   -0.5685   -0.3130 C.3     1  LIG1       -0.0236
      2 C           0.6211    0.5685   -0.3130 C.3     1  LIG1       -0.0236
      3 C           1.6597    0.2036    0.7855 C.3     1  LIG1       -0.0588
      4 C           1.3870    0.4671   -1.6786 C.3     1  LIG1       -0.0588
      5 H           2.5128    0.8992    0.8318 H       1  LIG1        0.0235
      6 H           1.1960    0.1789    1.7906 H       1  LIG1        0.0235
      7 H           2.1665   -0.7495    0.6022 H       1  LIG1        0.0235
      8 H           2.3575    0.9994   -1.6613 H       1  LIG1        0.0235
      9 H           1.6782   -0.5391   -1.9806 H       1  LIG1        0.0235
     10 H           0.7865    0.8717   -2.5165 H       1  LIG1        0.0235
     11 C          -1.6597   -0.2036    0.7855 C.3     1  LIG1       -0.0588
     12 C          -1.3870   -0.4671   -1.6786 C.3     1  LIG1       -0.0588
     13 H          -2.5128   -0.8992    0.8318 H       1  LIG1        0.0235
     14 H          -1.1960   -0.1789    1.7906 H       1  LIG1        0.0235
     15 H          -2.1665    0.7495    0.6022 H       1  LIG1        0.0235
     16 H          -2.3575   -0.9994   -1.6613 H       1  LIG1        0.0235
     17 H          -1.6782    0.5391   -1.9806 H       1  LIG1        0.0235
     18 H          -0.7865   -0.8717   -2.5165 H       1  LIG1        0.0235
     19 C           0.2603    2.1915   -0.0870 C.3     1  LIG1       -0.0228
     20 C          -0.4078    4.0538    1.5971 C.3     1  LIG1       -0.0400
     21 C          -0.1139    2.5487    1.4093 C.3     1  LIG1       -0.0440
     22 C          -0.8962    2.7276   -1.0072 C.3     1  LIG1       -0.0440
     23 C           1.5088    3.1191   -0.4265 C.3     1  LIG1       -0.0440
     24 C          -1.1803    4.2311   -0.7878 C.3     1  LIG1       -0.0400
     25 C           1.2217    4.6204   -0.2148 C.3     1  LIG1       -0.0400
     26 C          -1.5738    4.4763    0.6829 C.3     1  LIG1       -0.0473
     27 C           0.8456    4.8744    1.2526 C.3     1  LIG1       -0.0473
     28 C           0.0689    5.0553   -1.1331 C.3     1  LIG1       -0.0473
     29 H          -0.6821    4.2445    2.6581 H       1  LIG1        0.0301
     30 H          -2.0166    4.5473   -1.4495 H       1  LIG1        0.0301
     31 H           2.1294    5.2118   -0.4673 H       1  LIG1        0.0301
     32 H          -1.0027    2.0290    1.7810 H       1  LIG1        0.0273
     33 H           0.7173    2.2959    2.0986 H       1  LIG1        0.0273
     34 H          -0.6456    2.5763   -2.0781 H       1  LIG1        0.0273
     35 H          -1.8566    2.2382   -0.7986 H       1  LIG1        0.0273
     36 H           2.3914    2.8792    0.1942 H       1  LIG1        0.0273
     37 H           1.8033    3.0277   -1.4914 H       1  LIG1        0.0273
     38 H          -1.8039    5.5535    0.8375 H       1  LIG1        0.0271
     39 H          -2.4886    3.8969    0.9373 H       1  LIG1        0.0271
     40 H           1.6874    4.5837    1.9190 H       1  LIG1        0.0271
     41 H           0.6483    5.9574    1.4124 H       1  LIG1        0.0271
     42 H          -0.1386    6.1398   -0.9974 H       1  LIG1        0.0271
     43 H           0.3468    4.8968   -2.1984 H       1  LIG1        0.0271
     44 C          -0.2603   -2.1915   -0.0870 C.3     1  LIG1       -0.0228
     45 C           0.4078   -4.0538    1.5971 C.3     1  LIG1       -0.0400
     46 C           0.1139   -2.5487    1.4093 C.3     1  LIG1       -0.0440
     47 C           0.8962   -2.7276   -1.0072 C.3     1  LIG1       -0.0440
     48 C          -1.5088   -3.1191   -0.4265 C.3     1  LIG1       -0.0440
     49 C           1.1803   -4.2311   -0.7878 C.3     1  LIG1       -0.0400
     50 C          -1.2217   -4.6204   -0.2148 C.3     1  LIG1       -0.0400
     51 C           1.5738   -4.4763    0.6829 C.3     1  LIG1       -0.0473
     52 C          -0.8456   -4.8744    1.2526 C.3     1  LIG1       -0.0473
     53 C          -0.0689   -5.0553   -1.1331 C.3     1  LIG1       -0.0473
     54 H           0.6821   -4.2445    2.6581 H       1  LIG1        0.0301
     55 H           2.0166   -4.5473   -1.4495 H       1  LIG1        0.0301
     56 H          -2.1294   -5.2118   -0.4673 H       1  LIG1        0.0301
     57 H           1.0027   -2.0290    1.7810 H       1  LIG1        0.0273
     58 H          -0.7173   -2.2959    2.0986 H       1  LIG1        0.0273
     59 H           0.6456   -2.5763   -2.0781 H       1  LIG1        0.0273
     60 H           1.8566   -2.2382   -0.7986 H       1  LIG1        0.0273
     61 H          -2.3914   -2.8792    0.1942 H       1  LIG1        0.0273
     62 H          -1.8033   -3.0277   -1.4914 H       1  LIG1        0.0273
     63 H           1.8039   -5.5535    0.8375 H       1  LIG1        0.0271
     64 H           2.4886   -3.8969    0.9373 H       1  LIG1        0.0271
     65 H          -1.6874   -4.5837    1.9190 H       1  LIG1        0.0271
     66 H          -0.6483   -5.9574    1.4124 H       1  LIG1        0.0271
     67 H           0.1386   -6.1398   -0.9974 H       1  LIG1        0.0271
     68 H          -0.3468   -4.8968   -2.1984 H       1  LIG1        0.0271
@<TRIPOS>BOND
     1    18    12    1
     2    10     4    1
     3    68    53    1
     4    43    28    1
     5    34    22    1
     6    59    47    1
     7    17    12    1
     8     9     4    1
     9    12    16    1
    10    12     1    1
    11     4     8    1
    12     4     2    1
    13    62    48    1
    14    37    23    1
    15    55    49    1
    16    30    24    1
    17    28    42    1
    18    28    24    1
    19    28    25    1
    20    53    67    1
    21    53    49    1
    22    53    50    1
    23    47    60    1
    24    47    49    1
    25    47    44    1
    26    22    35    1
    27    22    24    1
    28    22    19    1
    29    24    26    1
    30    49    51    1
    31    31    25    1
    32    56    50    1
    33    23    25    1
    34    23    19    1
    35    23    36    1
    36    48    50    1
    37    48    44    1
    38    48    61    1
    39     2     1    1
    40     2    19    1
    41     2     3    1
    42     1    44    1
    43     1    11    1
    44    25    27    1
    45    50    52    1
    46    19    21    1
    47    44    46    1
    48     7     3    1
    49    15    11    1
    50    51    63    1
    51    51    64    1
    52    51    45    1
    53    26    38    1
    54    26    39    1
    55    26    20    1
    56     3     5    1
    57     3     6    1
    58    11    13    1
    59    11    14    1
    60    27    41    1
    61    27    20    1
    62    27    40    1
    63    52    66    1
    64    52    45    1
    65    52    65    1
    66    21    20    1
    67    21    32    1
    68    21    33    1
    69    46    45    1
    70    46    57    1
    71    46    58    1
    72    20    29    1
    73    45    54    1
