@<TRIPOS>MOLECULE
Name: Molecule_47 Comments:
 21 21 0 0 0
SMALL
GASTEIGER

@<TRIPOS>ATOM
      1 C          -0.6873    1.5538    0.0000 C.3     1  LIG1       -0.0215
      2 H          -1.7999    1.5814   -0.0000 H       1  LIG1        0.0343
      3 C          -0.2139    2.2839    1.2630 C.3     1  LIG1       -0.0587
      4 C          -0.2139    2.2839   -1.2630 C.3     1  LIG1       -0.0587
      5 H          -0.6028    3.3245    1.2706 H       1  LIG1        0.0235
      6 H          -0.5962    1.7639    2.1674 H       1  LIG1        0.0235
      7 H           0.8946    2.3241    1.3151 H       1  LIG1        0.0235
      8 H          -0.6028    3.3245   -1.2706 H       1  LIG1        0.0235
      9 H           0.8946    2.3241   -1.3151 H       1  LIG1        0.0235
     10 H          -0.5962    1.7639   -2.1674 H       1  LIG1        0.0235
     11 C          -0.2179    0.1097   -0.0000 C.ar    1  LIG1       -0.0448
     12 C          -1.1608   -0.9346    0.0000 C.ar    1  LIG1       -0.0583
     13 C           1.1551   -0.2086    0.0000 C.ar    1  LIG1       -0.0583
     14 C          -0.7387   -2.2677   -0.0000 C.ar    1  LIG1       -0.0615
     15 C           1.5699   -1.5437    0.0000 C.ar    1  LIG1       -0.0615
     16 C           0.6245   -2.5718   -0.0000 C.ar    1  LIG1       -0.0617
     17 H          -2.2215   -0.7169   -0.0000 H       1  LIG1        0.0620
     18 H           1.9022    0.5742   -0.0000 H       1  LIG1        0.0620
     19 H          -1.4699   -3.0658    0.0000 H       1  LIG1        0.0618
     20 H           2.6259   -1.7813   -0.0000 H       1  LIG1        0.0618
     21 H           0.9484   -3.6046   -0.0000 H       1  LIG1        0.0618
@<TRIPOS>BOND
     1    10     4    1
     2     9     4    1
     3     8     4    1
     4     4     1    1
     5    11    13   ar
     6    11    12   ar
     7    11     1    1
     8    21    16    1
     9    20    15    1
    10    19    14    1
    11    18    13    1
    12    17    12    1
    13    16    15   ar
    14    16    14   ar
    15    15    13   ar
    16    14    12   ar
    17     1     2    1
    18     1     3    1
    19     3     5    1
    20     3     7    1
    21     3     6    1
