@<TRIPOS>MOLECULE
Name: Molecule_41 Comments:
 8 7 0 0 0
SMALL
GASTEIGER

@<TRIPOS>ATOM
      1 C           0.3806   -1.6450    0.0000 C.2     1  LIG1       -0.0905
      2 C          -0.5091   -0.6439   -0.0000 C.2     1  LIG1       -0.0189
      3 H           1.4482   -1.4613    0.0000 H       1  LIG1        0.0541
      4 H          -1.5646   -0.8581   -0.0000 H       1  LIG1        0.0706
      5 H           0.0314   -2.6725   -0.0000 H       1  LIG1        0.0541
      6 C          -0.1064    0.7337   -0.0000 C.1     1  LIG1       -0.0780
      7 C           0.1822    1.9032    0.0000 C.1     1  LIG1       -0.1145
      8 H           0.4360    2.9271   -0.0000 H       1  LIG1        0.1231
@<TRIPOS>BOND
     1     1     2    2
     2     1     3    1
     3     1     5    1
     4     2     4    1
     5     2     6    1
     6     6     7    3
     7     7     8    1
