@<TRIPOS>MOLECULE
Name: Molecule_42 Comments:
 7 6 0 0 0
SMALL
GASTEIGER

@<TRIPOS>ATOM
      1 C           1.1761   -1.1298    0.0000 C.2     1  LIG1       -0.0885
      2 C          -0.1116   -0.7759    0.0000 C.2     1  LIG1        0.0083
      3 H           1.9661   -0.3836    0.0000 H       1  LIG1        0.0542
      4 H          -0.8824   -1.5381   -0.0000 H       1  LIG1        0.0727
      5 H           1.4471   -2.1811   -0.0000 H       1  LIG1        0.0542
      6 C          -0.5057    0.6098   -0.0000 C.1     1  LIG1        0.0908
      7 N          -0.8371    1.7186    0.0000 N.1     1  LIG1       -0.1915
@<TRIPOS>BOND
     1     6     2    1
     2     6     7    3
     3     1     2    2
     4     1     3    1
     5     1     5    1
     6     2     4    1
