@<TRIPOS>MOLECULE
Name: Molecule_21 Comments:
 66 75 0 0 0
SMALL
GASTEIGER

@<TRIPOS>ATOM
      1 C           1.9798   -0.7259   -1.1464 C.3     1  LIG1       -0.0439
      2 C           1.3915    0.0288    0.1082 C.3     1  LIG1       -0.0218
      3 C          -0.3059    0.0147    0.2656 C.3     1  LIG1       -0.0115
      4 C          -2.2620   -1.2985    1.4445 C.3     1  LIG1       -0.0343
      5 C          -0.7601   -1.3085    1.0609 C.3     1  LIG1       -0.0307
      6 C          -1.2467    0.0065   -1.0496 C.3     1  LIG1       -0.0187
      7 C          -0.8053    1.3075    1.0902 C.3     1  LIG1       -0.0307
      8 C          -2.7883   -0.0422   -0.6471 C.3     1  LIG1       -0.0286
      9 C          -2.3145    1.1959    1.4759 C.3     1  LIG1       -0.0343
     10 C          -3.1224   -1.3069    0.1631 C.3     1  LIG1       -0.0341
     11 C          -2.5820   -0.0674    2.2974 C.3     1  LIG1       -0.0463
     12 C          -3.1876    1.1780    0.1904 C.3     1  LIG1       -0.0341
     13 H          -2.4993   -2.2044    2.0477 H       1  LIG1        0.0306
     14 H          -3.4208   -0.0493   -1.5661 H       1  LIG1        0.0312
     15 H          -2.6034    2.0721    2.0996 H       1  LIG1        0.0306
     16 C          -0.5234   -2.6070    0.2403 C.3     1  LIG1       -0.0465
     17 H          -0.2429   -1.3770    2.0369 H       1  LIG1        0.0309
     18 C          -1.0489    1.3177   -1.8638 C.3     1  LIG1       -0.0437
     19 C          -1.0412   -1.2857   -1.9113 C.3     1  LIG1       -0.0437
     20 H          -0.2245    1.3895    2.0340 H       1  LIG1        0.0309
     21 C          -0.7227    2.6634    0.2882 C.3     1  LIG1       -0.0465
     22 H          -4.2030   -1.3176    0.4321 H       1  LIG1        0.0307
     23 C          -2.8334   -2.5510   -0.6827 C.3     1  LIG1       -0.0468
     24 H          -1.9683   -0.0635    3.2250 H       1  LIG1        0.0271
     25 H          -3.6521   -0.0950    2.6004 H       1  LIG1        0.0271
     26 H          -4.2658    1.1191    0.4629 H       1  LIG1        0.0307
     27 C          -2.9882    2.4359   -0.6567 C.3     1  LIG1       -0.0468
     28 C           3.5265   -0.7456   -1.1791 C.3     1  LIG1       -0.0400
     29 C           2.0634   -0.6105    1.3879 C.3     1  LIG1       -0.0439
     30 C           2.0364    1.4594    0.0118 C.3     1  LIG1       -0.0439
     31 C           3.6071   -0.6239    1.3279 C.3     1  LIG1       -0.0400
     32 C           3.5805    1.4648   -0.0350 C.3     1  LIG1       -0.0400
     33 C           4.0686   -1.4239    0.0935 C.3     1  LIG1       -0.0473
     34 C           4.0597    0.6903   -1.2682 C.3     1  LIG1       -0.0473
     35 C           4.1352    0.8138    1.2411 C.3     1  LIG1       -0.0473
     36 H           3.8693   -1.3098   -2.0745 H       1  LIG1        0.0301
     37 H           4.0069   -1.1035    2.2483 H       1  LIG1        0.0301
     38 H           3.9491    2.5125   -0.0970 H       1  LIG1        0.0301
     39 H           1.6966   -1.7788   -1.2104 H       1  LIG1        0.0273
     40 H           1.6548   -0.2151   -2.0758 H       1  LIG1        0.0273
     41 H           1.7422   -0.0624    2.3009 H       1  LIG1        0.0273
     42 H           1.7857   -1.6738    1.5075 H       1  LIG1        0.0273
     43 H           1.7100    1.9667   -0.9162 H       1  LIG1        0.0273
     44 H           1.7911    2.0390    0.9257 H       1  LIG1        0.0273
     45 H           5.1798   -1.4586    0.0594 H       1  LIG1        0.0271
     46 H           3.7007   -2.4718    0.1552 H       1  LIG1        0.0271
     47 H           3.6868    1.1787   -2.1955 H       1  LIG1        0.0271
     48 H           5.1712    0.6878   -1.3129 H       1  LIG1        0.0271
     49 H           5.2473    0.8146    1.2192 H       1  LIG1        0.0271
     50 H           3.8157    1.3906    2.1370 H       1  LIG1        0.0271
     51 C          -1.5078    2.5528   -1.0264 C.3     1  LIG1       -0.0400
     52 H          -1.6648    1.2795   -2.7894 H       1  LIG1        0.0274
     53 H           0.0010    1.4267   -2.1892 H       1  LIG1        0.0274
     54 H           0.2510    3.0663    0.0366 H       1  LIG1        0.0271
     55 H          -1.1321    3.4915    0.9098 H       1  LIG1        0.0271
     56 H          -3.3125    3.3313   -0.0813 H       1  LIG1        0.0271
     57 H          -3.6127    2.3883   -1.5762 H       1  LIG1        0.0271
     58 H          -1.3767    3.4834   -1.6214 H       1  LIG1        0.0301
     59 C          -1.3494   -2.5569   -1.0683 C.3     1  LIG1       -0.0400
     60 H          -0.8374   -3.4921    0.8376 H       1  LIG1        0.0271
     61 H           0.5334   -2.7989    0.0529 H       1  LIG1        0.0271
     62 H          -0.0603   -1.3725   -2.3726 H       1  LIG1        0.0274
     63 H          -1.7254   -1.2655   -2.7889 H       1  LIG1        0.0274
     64 H          -3.4674   -2.5478   -1.5969 H       1  LIG1        0.0271
     65 H          -3.0860   -3.4684   -0.1062 H       1  LIG1        0.0271
     66 H          -1.1557   -3.4679   -1.6754 H       1  LIG1        0.0301
@<TRIPOS>BOND
     1    52    18    1
     2    63    19    1
     3    62    19    1
     4    47    34    1
     5    53    18    1
     6    40     1    1
     7    36    28    1
     8    19    59    1
     9    19     6    1
    10    18     6    1
    11    18    51    1
    12    66    59    1
    13    58    51    1
    14    64    23    1
    15    57    27    1
    16    14     8    1
    17    48    34    1
    18    34    28    1
    19    34    32    1
    20    39     1    1
    21    28     1    1
    22    28    33    1
    23     1     2    1
    24    59    23    1
    25    59    16    1
    26     6     8    1
    27     6     3    1
    28    51    27    1
    29    51    21    1
    30    43    30    1
    31    23    65    1
    32    23    10    1
    33    27    56    1
    34    27    12    1
    35     8    10    1
    36     8    12    1
    37    38    32    1
    38    32    30    1
    39    32    35    1
    40    30     2    1
    41    30    44    1
    42    54    21    1
    43    61    16    1
    44    45    33    1
    45    33    46    1
    46    33    31    1
    47     2     3    1
    48     2    29    1
    49    10    22    1
    50    10     4    1
    51    12    26    1
    52    12     9    1
    53    16    60    1
    54    16     5    1
    55     3     5    1
    56     3     7    1
    57    21    55    1
    58    21     7    1
    59     5     4    1
    60     5    17    1
    61     7     9    1
    62     7    20    1
    63    49    35    1
    64    35    31    1
    65    35    50    1
    66    31    29    1
    67    31    37    1
    68    29    42    1
    69    29    41    1
    70     4    13    1
    71     4    11    1
    72     9    15    1
    73     9    11    1
    74    11    25    1
    75    11    24    1
