@<TRIPOS>MOLECULE
Name: Molecule_43 Comments:
 6 5 0 0 0
SMALL
GASTEIGER

@<TRIPOS>ATOM
      1 C           0.0000    0.0000    1.9112 C.1     1  LIG1       -0.1053
      2 C           0.0000    0.0000    0.7059 C.1     1  LIG1       -0.0185
      3 H           0.0000    0.0000    2.9696 H       1  LIG1        0.1238
      4 C           0.0000    0.0000   -0.7059 C.1     1  LIG1       -0.0185
      5 C           0.0000    0.0000   -1.9112 C.1     1  LIG1       -0.1053
      6 H           0.0000    0.0000   -2.9696 H       1  LIG1        0.1238
@<TRIPOS>BOND
     1     6     5    1
     2     5     4    3
     3     4     2    1
     4     2     1    3
     5     1     3    1
