@<TRIPOS>MOLECULE
Name: Molecule_23 Comments:
 82 95 0 0 0
SMALL
GASTEIGER

@<TRIPOS>ATOM
      1 C           1.9627    0.2598    1.0413 C.3     1  LIG1       -0.0187
      2 C           0.8940   -0.0723   -0.1602 C.3     1  LIG1       -0.0105
      3 C          -0.8941   -0.0709    0.1603 C.3     1  LIG1       -0.0105
      4 C          -2.8647    0.7998    1.7558 C.3     1  LIG1       -0.0343
      5 C          -1.3698    0.9727    1.3163 C.3     1  LIG1       -0.0307
      6 C          -1.4375   -1.5365    0.6215 C.3     1  LIG1       -0.0307
      7 C          -1.9623    0.2622   -1.0414 C.3     1  LIG1       -0.0187
      8 C          -2.9221   -1.5747    1.0939 C.3     1  LIG1       -0.0343
      9 C          -3.4950    0.1653   -0.5670 C.3     1  LIG1       -0.0286
     10 C          -3.1394   -0.6109    2.2522 C.3     1  LIG1       -0.0463
     11 C          -3.8129    1.1344    0.5753 C.3     1  LIG1       -0.0341
     12 C          -3.8632   -1.2297   -0.0866 C.3     1  LIG1       -0.0341
     13 H          -3.0893    1.4878    2.6033 H       1  LIG1        0.0306
     14 H          -3.1740   -2.5938    1.4682 H       1  LIG1        0.0306
     15 H          -4.1755    0.4106   -1.4176 H       1  LIG1        0.0312
     16 H          -0.7920    0.7817    2.2374 H       1  LIG1        0.0309
     17 C          -1.3280    2.4797    0.9253 C.3     1  LIG1       -0.0465
     18 C          -1.4347   -2.6470   -0.5190 C.3     1  LIG1       -0.0465
     19 H          -0.9089   -1.8130    1.5433 H       1  LIG1        0.0309
     20 C          -1.8642    1.7370   -1.5307 C.3     1  LIG1       -0.0437
     21 C          -1.8211   -0.7722   -2.1985 C.3     1  LIG1       -0.0437
     22 H          -4.1914   -0.6859    2.6071 H       1  LIG1        0.0271
     23 H          -2.4756   -0.8621    3.1086 H       1  LIG1        0.0271
     24 C          -3.6285    2.5627    0.0747 C.3     1  LIG1       -0.0468
     25 H          -4.8755    1.0290    0.8934 H       1  LIG1        0.0307
     26 H          -4.9261   -1.2632    0.2458 H       1  LIG1        0.0307
     27 C          -3.7198   -2.1930   -1.2623 C.3     1  LIG1       -0.0468
     28 C           3.4952    0.1604    0.5669 C.3     1  LIG1       -0.0286
     29 C           1.3713    0.9700   -1.3168 C.3     1  LIG1       -0.0307
     30 C           1.4352   -1.5390   -0.6207 C.3     1  LIG1       -0.0307
     31 C           2.8659    0.7946   -1.7562 C.3     1  LIG1       -0.0343
     32 C           2.9197   -1.5796   -1.0931 C.3     1  LIG1       -0.0343
     33 C           3.8145    1.1284   -0.5759 C.3     1  LIG1       -0.0341
     34 C           3.8614   -1.2354    0.0872 C.3     1  LIG1       -0.0341
     35 C           3.1385   -0.6168   -2.2518 C.3     1  LIG1       -0.0463
     36 H           4.1761    0.4052    1.4174 H       1  LIG1        0.0312
     37 H           3.0915    1.4818   -2.6041 H       1  LIG1        0.0306
     38 H           3.1701   -2.5993   -1.4668 H       1  LIG1        0.0306
     39 C           1.8668    1.7350    1.5298 C.3     1  LIG1       -0.0437
     40 C           1.8199   -0.7738    2.1989 C.3     1  LIG1       -0.0437
     41 H           0.7932    0.7794   -2.2378 H       1  LIG1        0.0309
     42 C           1.3317    2.4772   -0.9266 C.3     1  LIG1       -0.0465
     43 C           1.4308   -2.6489    0.5204 C.3     1  LIG1       -0.0465
     44 H           0.9061   -1.8152   -1.5424 H       1  LIG1        0.0309
     45 H           4.8770    1.0213   -0.8939 H       1  LIG1        0.0307
     46 C           3.6323    2.5572   -0.0760 C.3     1  LIG1       -0.0468
     47 C           3.7165   -2.1979    1.2634 C.3     1  LIG1       -0.0468
     48 H           4.9242   -1.2707   -0.2452 H       1  LIG1        0.0307
     49 H           4.1903   -0.6935   -2.6068 H       1  LIG1        0.0271
     50 H           2.4743   -0.8674   -3.1082 H       1  LIG1        0.0271
     51 C          -2.2627   -2.1893   -1.7183 C.3     1  LIG1       -0.0400
     52 H          -1.8394   -3.6037   -0.1164 H       1  LIG1        0.0271
     53 H          -0.5136   -3.0165   -0.9356 H       1  LIG1        0.0271
     54 H          -0.7888   -0.7915   -2.5918 H       1  LIG1        0.0274
     55 H          -2.4810   -0.4820   -3.0458 H       1  LIG1        0.0274
     56 H          -4.3888   -1.8943   -2.0996 H       1  LIG1        0.0271
     57 H          -4.0228   -3.2163   -0.9466 H       1  LIG1        0.0271
     58 H          -2.1691   -2.9213   -2.5511 H       1  LIG1        0.0301
     59 C           2.1770    2.7305    0.3507 C.3     1  LIG1       -0.0400
     60 H           2.6134    1.9185    2.3350 H       1  LIG1        0.0274
     61 H           0.9419    1.9267    2.0585 H       1  LIG1        0.0274
     62 H           0.3620    2.9095   -0.8878 H       1  LIG1        0.0271
     63 H           1.7236    3.1037   -1.7605 H       1  LIG1        0.0271
     64 H           3.8921    3.2772   -0.8839 H       1  LIG1        0.0271
     65 H           4.3160    2.7622    0.7777 H       1  LIG1        0.0271
     66 H           2.0579    3.7819    0.6916 H       1  LIG1        0.0301
     67 C          -2.1729    2.7335   -0.3521 C.3     1  LIG1       -0.0400
     68 H          -0.3577    2.9105    0.8863 H       1  LIG1        0.0271
     69 H          -1.7190    3.1072    1.7589 H       1  LIG1        0.0271
     70 H          -2.6106    1.9212   -2.3359 H       1  LIG1        0.0274
     71 H          -0.9391    1.9270   -2.0595 H       1  LIG1        0.0274
     72 H          -3.8873    3.2834    0.8822 H       1  LIG1        0.0271
     73 H          -4.3119    2.7683   -0.7791 H       1  LIG1        0.0271
     74 H          -2.0523    3.7846   -0.6935 H       1  LIG1        0.0301
     75 C           2.2594   -2.1918    1.7195 C.3     1  LIG1       -0.0400
     76 H           0.7876   -0.7913    2.5922 H       1  LIG1        0.0274
     77 H           2.4803   -0.4841    3.0461 H       1  LIG1        0.0274
     78 H           1.8340   -3.6064    0.1184 H       1  LIG1        0.0271
     79 H           0.5091   -3.0168    0.9372 H       1  LIG1        0.0271
     80 H           4.3860   -1.8998    2.1006 H       1  LIG1        0.0271
     81 H           4.0180   -3.2218    0.9483 H       1  LIG1        0.0271
     82 H           2.1648   -2.9232    2.5527 H       1  LIG1        0.0301
@<TRIPOS>BOND
     1    50    35    1
     2    55    21    1
     3    49    35    1
     4    37    31    1
     5    54    21    1
     6    58    51    1
     7    70    20    1
     8    35    31    1
     9    35    32    1
    10    41    29    1
    11    21    51    1
    12    21     7    1
    13    56    27    1
    14    71    20    1
    15    63    42    1
    16    31    29    1
    17    31    33    1
    18    51    27    1
    19    51    18    1
    20    44    30    1
    21    20     7    1
    22    20    67    1
    23    38    32    1
    24    15     9    1
    25    29    42    1
    26    29     2    1
    27    27    57    1
    28    27    12    1
    29    32    30    1
    30    32    34    1
    31     7     9    1
    32     7     3    1
    33    53    18    1
    34    42    62    1
    35    42    59    1
    36    45    33    1
    37    64    46    1
    38    73    24    1
    39    74    67    1
    40    30     2    1
    41    30    43    1
    42    33    46    1
    43    33    28    1
    44     9    12    1
    45     9    11    1
    46    18    52    1
    47    18     6    1
    48    67    24    1
    49    67    17    1
    50    48    34    1
    51     2     3    1
    52     2     1    1
    53    12    26    1
    54    12     8    1
    55    46    59    1
    56    46    65    1
    57    24    11    1
    58    24    72    1
    59    34    28    1
    60    34    47    1
    61    78    43    1
    62     3     6    1
    63     3     5    1
    64    59    66    1
    65    59    39    1
    66    43    79    1
    67    43    75    1
    68    28     1    1
    69    28    36    1
    70    11    25    1
    71    11     4    1
    72     6     8    1
    73     6    19    1
    74    68    17    1
    75    17     5    1
    76    17    69    1
    77    81    47    1
    78     1    39    1
    79     1    40    1
    80     8    14    1
    81     8    10    1
    82    47    75    1
    83    47    80    1
    84     5     4    1
    85     5    16    1
    86    39    61    1
    87    39    60    1
    88    75    40    1
    89    75    82    1
    90     4    10    1
    91     4    13    1
    92    40    76    1
    93    40    77    1
    94    10    22    1
    95    10    23    1
