@<TRIPOS>MOLECULE
Name: Molecule_20 Comments:
 66 75 0 0 0
SMALL
GASTEIGER

@<TRIPOS>ATOM
      1 C          -1.5213    0.6726    1.0089 C.3     1  LIG1       -0.0312
      2 C          -0.8335    0.1456   -0.3337 C.3     1  LIG1       -0.0166
      3 C           0.8336   -0.1462   -0.3333 C.3     1  LIG1       -0.0166
      4 C           2.5448   -1.6068   -1.6577 C.3     1  LIG1       -0.0400
      5 C           1.0784   -1.2315   -1.4547 C.3     1  LIG1       -0.0435
      6 C           1.5212   -0.6707    1.0104 C.3     1  LIG1       -0.0312
      7 C           1.7457    1.1156   -0.7352 C.3     1  LIG1       -0.0312
      8 C           3.0111   -1.0969    0.7482 C.3     1  LIG1       -0.0343
      9 C           3.2331    0.6985   -0.9939 C.3     1  LIG1       -0.0343
     10 C           3.1016   -2.1740   -0.3432 C.3     1  LIG1       -0.0468
     11 C           3.3256   -0.3638   -2.0966 C.3     1  LIG1       -0.0468
     12 C           3.8474    0.1334    0.3044 C.3     1  LIG1       -0.0346
     13 H           2.6200   -2.3824   -2.4517 H       1  LIG1        0.0301
     14 H           3.4462   -1.5160    1.6836 H       1  LIG1        0.0306
     15 H           3.8196    1.5860   -1.3236 H       1  LIG1        0.0306
     16 H           0.5772   -2.1844   -1.1988 H       1  LIG1        0.0274
     17 H           0.6848   -0.8823   -2.4323 H       1  LIG1        0.0274
     18 C           1.5926    0.4280    2.1322 C.3     1  LIG1       -0.0466
     19 H           1.0069   -1.5750    1.3758 H       1  LIG1        0.0309
     20 H           1.4134    1.5572   -1.6948 H       1  LIG1        0.0309
     21 C           1.7572    2.2095    0.3644 C.3     1  LIG1       -0.0466
     22 H           4.1616   -2.4793   -0.4865 H       1  LIG1        0.0271
     23 H           2.5298   -3.0774   -0.0367 H       1  LIG1        0.0271
     24 H           2.9118    0.0354   -3.0488 H       1  LIG1        0.0271
     25 H           4.3900   -0.6314   -2.2776 H       1  LIG1        0.0271
     26 H           4.9051   -0.1666    0.1276 H       1  LIG1        0.0306
     27 C           3.8378    1.2162    1.3883 C.3     1  LIG1       -0.0468
     28 C          -3.0112    1.0983    0.7457 C.3     1  LIG1       -0.0343
     29 C          -1.7456   -1.1170   -0.7334 C.3     1  LIG1       -0.0312
     30 C          -1.0781    1.2287   -1.4572 C.3     1  LIG1       -0.0435
     31 C          -3.2330   -0.7004   -0.9931 C.3     1  LIG1       -0.0343
     32 C          -2.5446    1.6037   -1.6612 C.3     1  LIG1       -0.0400
     33 C          -3.8474   -0.1328    0.3041 C.3     1  LIG1       -0.0346
     34 C          -3.1016    2.1733   -0.3478 C.3     1  LIG1       -0.0468
     35 C          -3.3253    0.3598   -2.0978 C.3     1  LIG1       -0.0468
     36 H          -3.4464    1.5192    1.6802 H       1  LIG1        0.0306
     37 H          -3.8194   -1.5885   -1.3212 H       1  LIG1        0.0306
     38 H          -2.6196    2.3778   -2.4566 H       1  LIG1        0.0301
     39 C          -1.5929   -0.4239    2.1327 C.3     1  LIG1       -0.0466
     40 H          -1.0071    1.5776    1.3727 H       1  LIG1        0.0309
     41 H          -1.4131   -1.5604   -1.6921 H       1  LIG1        0.0309
     42 C          -1.7572   -2.2088    0.3683 C.3     1  LIG1       -0.0466
     43 H          -0.5770    2.1821   -1.2030 H       1  LIG1        0.0274
     44 H          -0.6844    0.8777   -2.4341 H       1  LIG1        0.0274
     45 H          -4.9051    0.1669    0.1266 H       1  LIG1        0.0306
     46 C          -3.8380   -1.2136    1.3900 C.3     1  LIG1       -0.0468
     47 H          -2.5297    3.0774   -0.0429 H       1  LIG1        0.0271
     48 H          -4.1616    2.4784   -0.4918 H       1  LIG1        0.0271
     49 H          -4.3897    0.6271   -2.2795 H       1  LIG1        0.0271
     50 H          -2.9114   -0.0412   -3.0492 H       1  LIG1        0.0271
     51 C           2.3909    1.6462    1.6539 C.3     1  LIG1       -0.0402
     52 H           2.0690    0.0026    3.0432 H       1  LIG1        0.0271
     53 H           0.6333    0.8196    2.4711 H       1  LIG1        0.0271
     54 H           0.7417    2.5894    0.5693 H       1  LIG1        0.0271
     55 H           2.3539    3.0821    0.0183 H       1  LIG1        0.0271
     56 H           4.4418    2.0908    1.0599 H       1  LIG1        0.0271
     57 H           4.2971    0.8221    2.3218 H       1  LIG1        0.0271
     58 H           2.3955    2.4282    2.4449 H       1  LIG1        0.0301
     59 C          -2.3912   -1.6431    1.6567 C.3     1  LIG1       -0.0402
     60 H          -2.0695    0.0031    3.0429 H       1  LIG1        0.0271
     61 H          -0.6337   -0.8149    2.4726 H       1  LIG1        0.0271
     62 H          -0.7417   -2.5884    0.5741 H       1  LIG1        0.0271
     63 H          -2.3539   -3.0821    0.0238 H       1  LIG1        0.0271
     64 H          -4.4419   -2.0888    1.0632 H       1  LIG1        0.0271
     65 H          -4.2975   -0.8177    2.3226 H       1  LIG1        0.0271
     66 H          -2.3959   -2.4236    2.4491 H       1  LIG1        0.0301
@<TRIPOS>BOND
     1    50    35    1
     2    24    11    1
     3    38    32    1
     4    13     4    1
     5    44    30    1
     6    17     5    1
     7    49    35    1
     8    25    11    1
     9    35    32    1
    10    35    31    1
    11    11     4    1
    12    11     9    1
    13    20     7    1
    14    41    29    1
    15    32    30    1
    16    32    34    1
    17     4     5    1
    18     4    10    1
    19    30    43    1
    20    30     2    1
    21     5    16    1
    22     5     3    1
    23    15     9    1
    24    37    31    1
    25     9     7    1
    26     9    12    1
    27    31    29    1
    28    31    33    1
    29     7     3    1
    30     7    21    1
    31    29     2    1
    32    29    42    1
    33    48    34    1
    34    22    10    1
    35    34    47    1
    36    34    28    1
    37    10    23    1
    38    10     8    1
    39     2     3    1
    40     2     1    1
    41     3     6    1
    42    55    21    1
    43    63    42    1
    44    45    33    1
    45    26    12    1
    46    33    28    1
    47    33    46    1
    48    12     8    1
    49    12    27    1
    50    21    54    1
    51    21    51    1
    52    42    62    1
    53    42    59    1
    54    28     1    1
    55    28    36    1
    56     8     6    1
    57     8    14    1
    58     1    40    1
    59     1    39    1
    60     6    19    1
    61     6    18    1
    62    56    27    1
    63    64    46    1
    64    27    51    1
    65    27    57    1
    66    46    59    1
    67    46    65    1
    68    51    18    1
    69    51    58    1
    70    59    39    1
    71    59    66    1
    72    18    53    1
    73    18    52    1
    74    39    61    1
    75    39    60    1
