@<TRIPOS>MOLECULE
Name: Molecule_34 Comments:
 10 9 0 0 0
SMALL
GASTEIGER

@<TRIPOS>ATOM
      1 C           0.6022    1.5967    0.6657 C.2     1  LIG1       -0.0987
      2 C           0.6261    0.3623    0.1511 C.2     1  LIG1       -0.0694
      3 H          -0.3366    2.1011    0.8760 H       1  LIG1        0.0535
      4 H           1.5836   -0.1105   -0.0461 H       1  LIG1        0.0612
      5 H           1.5330    2.1124    0.8807 H       1  LIG1        0.0535
      6 C          -0.6261   -0.3623   -0.1511 C.2     1  LIG1       -0.0694
      7 C          -0.6022   -1.5967   -0.6657 C.2     1  LIG1       -0.0987
      8 H           0.3366   -2.1011   -0.8760 H       1  LIG1        0.0535
      9 H          -1.5836    0.1105    0.0461 H       1  LIG1        0.0612
     10 H          -1.5330   -2.1124   -0.8807 H       1  LIG1        0.0535
@<TRIPOS>BOND
     1    10     7    1
     2     8     7    1
     3     7     6    2
     4     6     9    1
     5     6     2    1
     6     4     2    1
     7     2     1    2
     8     1     3    1
     9     1     5    1
