@<TRIPOS>MOLECULE
Name: Molecule_4 Comments:
 17 16 0 0 0
SMALL
GASTEIGER

@<TRIPOS>ATOM
      1 C          -0.7786   -1.2537    0.4402 C.3     1  LIG1       -0.0603
      2 C           0.0000   -0.0000   -0.0000 C.3     1  LIG1       -0.0405
      3 C           0.4785    0.7705    1.2447 C.3     1  LIG1       -0.0603
      4 C           1.2183   -0.4218   -0.8424 C.3     1  LIG1       -0.0603
      5 C          -0.9181    0.9050   -0.8425 C.3     1  LIG1       -0.0603
      6 H           1.0438    1.6808    0.9492 H       1  LIG1        0.0235
      7 H          -0.3865    1.0850    1.8679 H       1  LIG1        0.0235
      8 H           1.1438    0.1346    1.8680 H       1  LIG1        0.0235
      9 H           1.7955    0.4694   -1.1712 H       1  LIG1        0.0235
     10 H           1.8954   -1.0768   -0.2524 H       1  LIG1        0.0235
     11 H           0.8950   -0.9805   -1.7474 H       1  LIG1        0.0235
     12 H          -0.3751    1.8175   -1.1713 H       1  LIG1        0.0235
     13 H          -1.2755    0.3676   -1.7475 H       1  LIG1        0.0235
     14 H          -1.8054    1.2216   -0.2526 H       1  LIG1        0.0235
     15 H          -1.6637   -0.9716    1.0507 H       1  LIG1        0.0235
     16 H          -0.1335   -1.9220    1.0507 H       1  LIG1        0.0235
     17 H          -1.1338   -1.8256   -0.4442 H       1  LIG1        0.0235
@<TRIPOS>BOND
     1    13     5    1
     2    11     4    1
     3    12     5    1
     4     9     4    1
     5     5    14    1
     6     5     2    1
     7     4    10    1
     8     4     2    1
     9    17     1    1
    10     2     1    1
    11     2     3    1
    12     1    15    1
    13     1    16    1
    14     6     3    1
    15     3     7    1
    16     3     8    1
