@<TRIPOS>MOLECULE
Name: Molecule_40 Comments:
 6 5 0 0 0
SMALL
GASTEIGER

@<TRIPOS>ATOM
      1 C           0.0000   -0.0000   -1.1789 C.3     1  LIG1        0.0232
      2 C          -0.0000   -0.0000    0.2842 C.1     1  LIG1        0.0591
      3 H           0.1816    1.0300   -1.5489 H       1  LIG1        0.0382
      4 H           0.8013   -0.6723   -1.5489 H       1  LIG1        0.0382
      5 H          -0.9828   -0.3578   -1.5489 H       1  LIG1        0.0382
      6 N           0.0000    0.0000    1.4414 N.1     1  LIG1       -0.1969
@<TRIPOS>BOND
     1     3     1    1
     2     4     1    1
     3     5     1    1
     4     1     2    1
     5     2     6    3
