@<TRIPOS>MOLECULE
Name: Molecule_46 Comments:
 18 18 0 0 0
SMALL
GASTEIGER

@<TRIPOS>ATOM
      1 C          -0.4389   -0.1069   -0.2826 C.ar    1  LIG1       -0.0476
      2 C           0.3412   -1.2754   -0.3384 C.ar    1  LIG1       -0.0586
      3 C           0.1802    1.1193    0.0200 C.ar    1  LIG1       -0.0586
      4 C           1.7161   -1.2168   -0.0896 C.ar    1  LIG1       -0.0615
      5 C           1.5555    1.1718    0.2675 C.ar    1  LIG1       -0.0615
      6 C           2.3224    0.0050    0.2136 C.ar    1  LIG1       -0.0617
      7 C          -1.9221   -0.1678   -0.5547 C.3     1  LIG1       -0.0305
      8 H          -0.1146   -2.2294   -0.5725 H       1  LIG1        0.0620
      9 H          -0.4009    2.0318    0.0610 H       1  LIG1        0.0620
     10 H           2.3119   -2.1195   -0.1324 H       1  LIG1        0.0618
     11 H           2.0270    2.1178    0.5002 H       1  LIG1        0.0618
     12 H           3.3867    0.0479    0.4053 H       1  LIG1        0.0618
     13 H          -2.1637    0.4942   -1.4139 H       1  LIG1        0.0311
     14 H          -2.2257   -1.2028   -0.8251 H       1  LIG1        0.0311
     15 C          -2.7385    0.2555    0.6651 C.3     1  LIG1       -0.0613
     16 H          -2.5101    1.3026    0.9540 H       1  LIG1        0.0233
     17 H          -3.8212    0.1880    0.4279 H       1  LIG1        0.0233
     18 H          -2.5196   -0.4153    1.5231 H       1  LIG1        0.0233
@<TRIPOS>BOND
     1    13     7    1
     2    14     7    1
     3     8     2    1
     4     7     1    1
     5     7    15    1
     6     2     1   ar
     7     2     4   ar
     8     1     3   ar
     9    10     4    1
    10     4     6   ar
    11     3     9    1
    12     3     5   ar
    13     6     5   ar
    14     6    12    1
    15     5    11    1
    16    17    15    1
    17    15    16    1
    18    15    18    1
