@<TRIPOS>MOLECULE
Name: Molecule_22 Comments:
 74 85 0 0 0
SMALL
GASTEIGER

@<TRIPOS>ATOM
      1 C          -1.9490   -1.0161    0.7716 C.3     1  LIG1       -0.0312
      2 C          -1.0647    0.1958    0.1656 C.3     1  LIG1       -0.0161
      3 C           0.6358   -0.0204   -0.1319 C.3     1  LIG1       -0.0110
      4 C           2.5266    0.6066   -1.8668 C.3     1  LIG1       -0.0343
      5 C           1.0804    0.9018   -1.3751 C.3     1  LIG1       -0.0307
      6 C           1.0035   -1.5486   -0.4658 C.3     1  LIG1       -0.0307
      7 C           1.7455    0.3678    1.0095 C.3     1  LIG1       -0.0187
      8 C           2.4558   -1.7281   -0.9926 C.3     1  LIG1       -0.0343
      9 C           3.2325    0.1228    0.4775 C.3     1  LIG1       -0.0286
     10 C           2.6833   -0.8698   -2.2407 C.3     1  LIG1       -0.0463
     11 C           3.5393    0.9797   -0.7642 C.3     1  LIG1       -0.0341
     12 C           3.4676   -1.3432    0.1126 C.3     1  LIG1       -0.0341
     13 H           2.7406    1.2143   -2.7756 H       1  LIG1        0.0306
     14 H           2.6191   -2.7930   -1.2761 H       1  LIG1        0.0306
     15 H           3.9717    0.3923    1.2688 H       1  LIG1        0.0312
     16 H           0.4509    0.6927   -2.2570 H       1  LIG1        0.0309
     17 C           1.0377    2.4270   -1.0530 C.3     1  LIG1       -0.0465
     18 C           0.9138   -2.4957    0.7873 C.3     1  LIG1       -0.0465
     19 H           0.3880   -1.9103   -1.2948 H       1  LIG1        0.0309
     20 C           1.7638    1.8957    1.3751 C.3     1  LIG1       -0.0437
     21 C           1.5790   -0.5454    2.2608 C.3     1  LIG1       -0.0437
     22 H           3.7095   -1.0477   -2.6319 H       1  LIG1        0.0271
     23 H           1.9639   -1.1474   -3.0423 H       1  LIG1        0.0271
     24 C           3.4375    2.4632   -0.4055 C.3     1  LIG1       -0.0468
     25 H           4.5768    0.7866   -1.1203 H       1  LIG1        0.0307
     26 H           4.5084   -1.4869   -0.2569 H       1  LIG1        0.0307
     27 C           3.2936   -2.1969    1.3704 C.3     1  LIG1       -0.0468
     28 C          -3.4217   -0.5671    1.1069 C.3     1  LIG1       -0.0343
     29 C          -1.9038    0.5839   -1.1501 C.3     1  LIG1       -0.0312
     30 C          -1.2606    1.3719    1.1969 C.3     1  LIG1       -0.0434
     31 C          -3.3653    1.0456   -0.8100 C.3     1  LIG1       -0.0343
     32 C          -2.7052    1.7740    1.4853 C.3     1  LIG1       -0.0400
     33 C          -4.1538   -0.1243   -0.1861 C.3     1  LIG1       -0.0346
     34 C          -3.4398    0.5885    2.1061 C.3     1  LIG1       -0.0468
     35 C          -3.3687    2.2216    0.1754 C.3     1  LIG1       -0.0468
     36 H          -3.9774   -1.4144    1.5697 H       1  LIG1        0.0306
     37 H          -3.8769    1.3757   -1.7426 H       1  LIG1        0.0306
     38 H          -2.7177    2.6196    2.2090 H       1  LIG1        0.0301
     39 C          -2.1463   -2.2272   -0.2147 C.3     1  LIG1       -0.0466
     40 H          -1.5336   -1.3263    1.7475 H       1  LIG1        0.0309
     41 H          -1.4569    1.4491   -1.6652 H       1  LIG1        0.0309
     42 C          -2.0213   -0.5981   -2.1533 C.3     1  LIG1       -0.0466
     43 H          -0.8278    1.0901    2.1730 H       1  LIG1        0.0274
     44 H          -0.8289    2.3086    0.8606 H       1  LIG1        0.0274
     45 H          -5.1932    0.1974    0.0513 H       1  LIG1        0.0306
     46 C          -4.2377   -1.2827   -1.1827 C.3     1  LIG1       -0.0468
     47 H          -2.9498    0.2820    3.0566 H       1  LIG1        0.0271
     48 H          -4.4883    0.8740    2.3444 H       1  LIG1        0.0271
     49 H          -4.4138    2.5460    0.3760 H       1  LIG1        0.0271
     50 H          -2.8254    3.0886   -0.2610 H       1  LIG1        0.0271
     51 C           1.8644   -2.0264    1.8903 C.3     1  LIG1       -0.0400
     52 H           1.1652   -3.5389    0.4909 H       1  LIG1        0.0271
     53 H          -0.0558   -2.5973    1.2534 H       1  LIG1        0.0271
     54 H           0.5667   -0.4631    2.6954 H       1  LIG1        0.0274
     55 H           2.2999   -0.2399    3.0511 H       1  LIG1        0.0274
     56 H           4.0252   -1.8915    2.1510 H       1  LIG1        0.0271
     57 H           3.4896   -3.2653    1.1294 H       1  LIG1        0.0271
     58 H           1.7445   -2.6692    2.7903 H       1  LIG1        0.0301
     59 C          -2.8201   -1.7575   -1.5148 C.3     1  LIG1       -0.0402
     60 H          -2.7752   -3.0074    0.2695 H       1  LIG1        0.0271
     61 H          -1.2555   -2.7820   -0.4934 H       1  LIG1        0.0271
     62 H          -1.0363   -0.9448   -2.5001 H       1  LIG1        0.0271
     63 H          -2.5544   -0.2571   -3.0682 H       1  LIG1        0.0271
     64 H          -4.7612   -0.9556   -2.1082 H       1  LIG1        0.0271
     65 H          -4.8268   -2.1176   -0.7426 H       1  LIG1        0.0271
     66 H          -2.8979   -2.6062   -2.2294 H       1  LIG1        0.0301
     67 C           2.0214    2.7537    0.1007 C.3     1  LIG1       -0.0400
     68 H           0.0315    2.8028   -0.8589 H       1  LIG1        0.0271
     69 H           1.3352    3.0057   -1.9561 H       1  LIG1        0.0271
     70 H           2.5778    2.0973    2.1074 H       1  LIG1        0.0274
     71 H           0.9049    2.2629    1.9315 H       1  LIG1        0.0274
     72 H           3.6672    3.0874   -1.2975 H       1  LIG1        0.0271
     73 H           4.1849    2.7184    0.3782 H       1  LIG1        0.0271
     74 H           1.9689    3.8347    0.3552 H       1  LIG1        0.0301
@<TRIPOS>BOND
     1    63    42    1
     2    23    10    1
     3    13     4    1
     4    22    10    1
     5    62    42    1
     6    16     5    1
     7    10     4    1
     8    10     8    1
     9    66    59    1
    10    42    59    1
    11    42    29    1
    12    64    46    1
    13    69    17    1
    14     4     5    1
    15     4    11    1
    16    37    31    1
    17    41    29    1
    18    59    46    1
    19    59    39    1
    20     5    17    1
    21     5     3    1
    22    72    24    1
    23    19     6    1
    24    14     8    1
    25    46    65    1
    26    46    33    1
    27    29    31    1
    28    29     2    1
    29    25    11    1
    30    17    68    1
    31    17    67    1
    32     8     6    1
    33     8    12    1
    34    31    33    1
    35    31    35    1
    36    11    24    1
    37    11     9    1
    38    61    39    1
    39     6     3    1
    40     6    18    1
    41    24    67    1
    42    24    73    1
    43    50    35    1
    44    26    12    1
    45    39    60    1
    46    39     1    1
    47    33    45    1
    48    33    28    1
    49     3     2    1
    50     3     7    1
    51    67    74    1
    52    67    20    1
    53    12     9    1
    54    12    27    1
    55     2     1    1
    56     2    30    1
    57    35    49    1
    58    35    32    1
    59     9     7    1
    60     9    15    1
    61    52    18    1
    62     1    28    1
    63     1    40    1
    64    18    53    1
    65    18    51    1
    66    44    30    1
    67     7    20    1
    68     7    21    1
    69    28    36    1
    70    28    34    1
    71    57    27    1
    72    30    32    1
    73    30    43    1
    74    27    51    1
    75    27    56    1
    76    20    71    1
    77    20    70    1
    78    32    34    1
    79    32    38    1
    80    51    21    1
    81    51    58    1
    82    34    48    1
    83    34    47    1
    84    21    54    1
    85    21    55    1
