@<TRIPOS>MOLECULE
Name: Molecule_25 Comments:
 56 64 0 0 0
SMALL
GASTEIGER

@<TRIPOS>ATOM
      1 C           0.0000    0.7889    1.4099 C.3     1  LIG1        0.0349
      2 C          -0.0000    0.7889   -1.4099 C.3     1  LIG1        0.0349
      3 C          -0.0000   -0.7889    1.4099 C.3     1  LIG1        0.0349
      4 C           0.0000   -0.7889   -1.4099 C.3     1  LIG1        0.0349
      5 C           0.0000    0.7613    2.9648 C.3     1  LIG1       -0.0370
      6 C          -0.0000    0.7613   -2.9648 C.3     1  LIG1       -0.0370
      7 C          -0.0000   -0.7613    2.9648 C.3     1  LIG1       -0.0370
      8 C           0.0000   -0.7613   -2.9648 C.3     1  LIG1       -0.0370
      9 C           1.2321    1.4171   -0.7128 C.ar    1  LIG1       -0.0317
     10 C           1.2321    1.4171    0.7128 C.ar    1  LIG1       -0.0317
     11 C           2.3101    2.0218   -1.3998 C.ar    1  LIG1       -0.0574
     12 C           2.3101    2.0218    1.3998 C.ar    1  LIG1       -0.0574
     13 C           3.3663    2.5944   -0.6946 C.ar    1  LIG1       -0.0615
     14 C           3.3663    2.5944    0.6946 C.ar    1  LIG1       -0.0615
     15 H           2.3626    2.0697   -2.4702 H       1  LIG1        0.0621
     16 H           2.3626    2.0697    2.4702 H       1  LIG1        0.0621
     17 H           4.1880    3.0509   -1.2316 H       1  LIG1        0.0618
     18 H           4.1880    3.0509    1.2316 H       1  LIG1        0.0618
     19 C          -1.2321    1.4171    0.7128 C.ar    1  LIG1       -0.0317
     20 C          -1.2321    1.4171   -0.7128 C.ar    1  LIG1       -0.0317
     21 C          -2.3101    2.0218    1.3998 C.ar    1  LIG1       -0.0574
     22 C          -2.3101    2.0218   -1.3998 C.ar    1  LIG1       -0.0574
     23 C          -3.3663    2.5944    0.6946 C.ar    1  LIG1       -0.0615
     24 C          -3.3663    2.5944   -0.6946 C.ar    1  LIG1       -0.0615
     25 H          -2.3626    2.0697    2.4702 H       1  LIG1        0.0621
     26 H          -2.3626    2.0697   -2.4702 H       1  LIG1        0.0621
     27 H          -4.1880    3.0509    1.2316 H       1  LIG1        0.0618
     28 H          -4.1880    3.0509   -1.2316 H       1  LIG1        0.0618
     29 C           1.2321   -1.4171    0.7128 C.ar    1  LIG1       -0.0317
     30 C           1.2321   -1.4171   -0.7128 C.ar    1  LIG1       -0.0317
     31 C           2.3101   -2.0218    1.3998 C.ar    1  LIG1       -0.0574
     32 C           2.3101   -2.0218   -1.3998 C.ar    1  LIG1       -0.0574
     33 C           3.3663   -2.5944    0.6946 C.ar    1  LIG1       -0.0615
     34 C           3.3663   -2.5944   -0.6946 C.ar    1  LIG1       -0.0615
     35 H           2.3626   -2.0697    2.4702 H       1  LIG1        0.0621
     36 H           2.3626   -2.0697   -2.4702 H       1  LIG1        0.0621
     37 H           4.1880   -3.0509    1.2316 H       1  LIG1        0.0618
     38 H           4.1880   -3.0509   -1.2316 H       1  LIG1        0.0618
     39 C          -1.2321   -1.4171   -0.7128 C.ar    1  LIG1       -0.0317
     40 C          -1.2321   -1.4171    0.7128 C.ar    1  LIG1       -0.0317
     41 C          -2.3101   -2.0218   -1.3998 C.ar    1  LIG1       -0.0574
     42 C          -2.3101   -2.0218    1.3998 C.ar    1  LIG1       -0.0574
     43 C          -3.3663   -2.5944   -0.6946 C.ar    1  LIG1       -0.0615
     44 C          -3.3663   -2.5944    0.6946 C.ar    1  LIG1       -0.0615
     45 H          -2.3626   -2.0697   -2.4702 H       1  LIG1        0.0621
     46 H          -2.3626   -2.0697    2.4702 H       1  LIG1        0.0621
     47 H          -4.1880   -3.0509   -1.2316 H       1  LIG1        0.0618
     48 H          -4.1880   -3.0509    1.2316 H       1  LIG1        0.0618
     49 H           0.8976    1.1022    3.5041 H       1  LIG1        0.0278
     50 H          -0.8976    1.1022    3.5041 H       1  LIG1        0.0278
     51 H          -0.8976    1.1022   -3.5041 H       1  LIG1        0.0278
     52 H           0.8976    1.1022   -3.5041 H       1  LIG1        0.0278
     53 H          -0.8976   -1.1022    3.5041 H       1  LIG1        0.0278
     54 H           0.8976   -1.1022    3.5041 H       1  LIG1        0.0278
     55 H           0.8976   -1.1022   -3.5041 H       1  LIG1        0.0278
     56 H          -0.8976   -1.1022   -3.5041 H       1  LIG1        0.0278
@<TRIPOS>BOND
     1    56     8    1
     2    55     8    1
     3    52     6    1
     4    51     6    1
     5     6     8    1
     6     6     2    1
     7     8     4    1
     8    45    41    1
     9    36    32    1
    10    26    22    1
    11    15    11    1
    12     2     4    1
    13     2    20    1
    14     2     9    1
    15     4    39    1
    16     4    30    1
    17    11     9   ar
    18    11    13   ar
    19    41    39   ar
    20    41    43   ar
    21    22    20   ar
    22    22    24   ar
    23    32    30   ar
    24    32    34   ar
    25    47    43    1
    26    17    13    1
    27    38    34    1
    28    28    24    1
    29    39    40   ar
    30    20    19   ar
    31     9    10   ar
    32    30    29   ar
    33    13    14   ar
    34    43    44   ar
    35    34    33   ar
    36    24    23   ar
    37    33    37    1
    38    33    31   ar
    39    14    18    1
    40    14    12   ar
    41    23    27    1
    42    23    21   ar
    43    44    48    1
    44    44    42   ar
    45    29    31   ar
    46    29     3    1
    47    10    12   ar
    48    10     1    1
    49    19    21   ar
    50    19     1    1
    51    40    42   ar
    52    40     3    1
    53    42    46    1
    54    12    16    1
    55    21    25    1
    56    31    35    1
    57     3     1    1
    58     3     7    1
    59     1     5    1
    60     7     5    1
    61     7    53    1
    62     7    54    1
    63     5    49    1
    64     5    50    1
