@<TRIPOS>MOLECULE
Name: Molecule_26 Comments:
 66 73 0 0 0
SMALL
GASTEIGER

@<TRIPOS>ATOM
      1 C          -3.2325   -0.1171   -0.0015 C.ar    1  LIG1       -0.0109
      2 C          -1.8760   -0.0679   -0.0008 C.ar    1  LIG1       -0.0086
      3 C          -3.9563   -0.2146    1.1240 C.ar    1  LIG1       -0.0391
      4 C          -1.1580   -0.0942    1.1363 C.ar    1  LIG1       -0.0230
      5 C          -3.2837   -0.2735    2.3677 C.ar    1  LIG1       -0.0577
      6 C          -1.8532   -0.2156    2.3760 C.ar    1  LIG1       -0.0565
      7 C          -1.1607    0.0103   -1.1373 C.ar    1  LIG1       -0.0230
      8 C          -3.9604   -0.0723   -1.1277 C.ar    1  LIG1       -0.0391
      9 C          -1.8616    0.0811   -2.3777 C.ar    1  LIG1       -0.0565
     10 C          -3.2926    0.0352   -2.3708 C.ar    1  LIG1       -0.0577
     11 C          -5.4189   -0.2493    0.7867 C.3     1  LIG1       -0.0231
     12 C          -5.4219   -0.1436   -0.7918 C.3     1  LIG1       -0.0231
     13 C           0.3362   -0.0151    0.8344 C.3     1  LIG1        0.0636
     14 C           0.3350    0.0396   -0.8339 C.3     1  LIG1        0.0636
     15 H          -3.8386   -0.3592    3.2924 H       1  LIG1        0.0621
     16 H          -1.3084   -0.2580    3.3100 H       1  LIG1        0.0621
     17 H          -1.3205    0.1628   -3.3112 H       1  LIG1        0.0621
     18 H          -3.8514    0.0805   -3.2960 H       1  LIG1        0.0621
     19 H          -5.9402    0.6150    1.2503 H       1  LIG1        0.0316
     20 H          -5.8627   -1.2088    1.1277 H       1  LIG1        0.0316
     21 H          -5.8788   -1.0434   -1.2559 H       1  LIG1        0.0316
     22 H          -5.9338    0.7812   -1.1333 H       1  LIG1        0.0316
     23 C           0.9133   -1.3313    1.4389 C.ar    1  LIG1       -0.0310
     24 C           0.3624   -2.5806    1.0562 C.ar    1  LIG1       -0.0574
     25 C           1.9550   -1.3418    2.4006 C.ar    1  LIG1       -0.0574
     26 C           0.8499   -3.7769    1.5850 C.ar    1  LIG1       -0.0615
     27 C           2.4341   -2.5467    2.9235 C.ar    1  LIG1       -0.0615
     28 C           1.8868   -3.7605    2.5139 C.ar    1  LIG1       -0.0617
     29 H          -0.4514   -2.6267    0.3455 H       1  LIG1        0.0621
     30 H           2.4053   -0.4351    2.7649 H       1  LIG1        0.0621
     31 H           0.4182   -4.7196    1.2745 H       1  LIG1        0.0618
     32 H           3.2327   -2.5368    3.6542 H       1  LIG1        0.0618
     33 H           2.2616   -4.6895    2.9237 H       1  LIG1        0.0618
     34 C           0.9807    1.2694    1.4591 C.ar    1  LIG1       -0.0310
     35 C           2.3496    1.5561    1.2465 C.ar    1  LIG1       -0.0574
     36 C           0.2318    2.2045    2.2240 C.ar    1  LIG1       -0.0574
     37 C           2.9415    2.7043    1.7775 C.ar    1  LIG1       -0.0615
     38 C           0.8347    3.3506    2.7496 C.ar    1  LIG1       -0.0615
     39 C           2.1861    3.5992    2.5286 C.ar    1  LIG1       -0.0617
     40 H           2.9670    0.8953    0.6762 H       1  LIG1        0.0621
     41 H          -0.8187    2.0759    2.4146 H       1  LIG1        0.0621
     42 H           3.9917    2.8995    1.6032 H       1  LIG1        0.0618
     43 H           0.2468    4.0516    3.3281 H       1  LIG1        0.0618
     44 H           2.6476    4.4889    2.9370 H       1  LIG1        0.0618
     45 C           0.8158    1.3942   -1.4380 C.ar    1  LIG1       -0.0310
     46 C           0.1755    2.6002   -1.0558 C.ar    1  LIG1       -0.0574
     47 C           1.8550    1.4802   -2.3986 C.ar    1  LIG1       -0.0574
     48 C           0.5756    3.8288   -1.5842 C.ar    1  LIG1       -0.0615
     49 C           2.2461    2.7166   -2.9211 C.ar    1  LIG1       -0.0615
     50 C           1.6119    3.8876   -2.5121 C.ar    1  LIG1       -0.0617
     51 H          -0.6401    2.5873   -0.3460 H       1  LIG1        0.0621
     52 H           2.3701    0.6085   -2.7624 H       1  LIG1        0.0621
     53 H           0.0765    4.7378   -1.2742 H       1  LIG1        0.0618
     54 H           3.0440    2.7646   -3.6510 H       1  LIG1        0.0618
     55 H           1.9188    4.8413   -2.9215 H       1  LIG1        0.0618
     56 C           1.0715   -1.1948   -1.4580 C.ar    1  LIG1       -0.0310
     57 C           2.4574   -1.3817   -1.2440 C.ar    1  LIG1       -0.0574
     58 C           0.3930   -2.1817   -2.2236 C.ar    1  LIG1       -0.0574
     59 C           3.1313   -2.4838   -1.7744 C.ar    1  LIG1       -0.0615
     60 C           1.0779   -3.2811   -2.7485 C.ar    1  LIG1       -0.0615
     61 C           2.4435   -3.4311   -2.5262 C.ar    1  LIG1       -0.0617
     62 H           3.0247   -0.6778   -0.6731 H       1  LIG1        0.0621
     63 H          -0.6639   -2.1295   -2.4152 H       1  LIG1        0.0621
     64 H           4.1928   -2.6025   -1.5991 H       1  LIG1        0.0618
     65 H           0.5429   -4.0227   -3.3277 H       1  LIG1        0.0618
     66 H           2.9687   -4.2850   -2.9342 H       1  LIG1        0.0618
@<TRIPOS>BOND
     1    54    49    1
     2    65    60    1
     3    17     9    1
     4    18    10    1
     5    66    61    1
     6    55    50    1
     7    49    50   ar
     8    49    47   ar
     9    52    47    1
    10    60    61   ar
    11    60    58   ar
    12    61    59   ar
    13    50    48   ar
    14    63    58    1
    15    47    45   ar
    16     9    10   ar
    17     9     7   ar
    18    10     8   ar
    19    58    56   ar
    20    59    64    1
    21    59    57   ar
    22    48    53    1
    23    48    46   ar
    24    56    57   ar
    25    56    14    1
    26    45    46   ar
    27    45    14    1
    28    21    12    1
    29    57    62    1
    30     7    14    1
    31     7     2   ar
    32    22    12    1
    33     8    12    1
    34     8     1   ar
    35    46    51    1
    36    14    13    1
    37    12    11    1
    38     1     2   ar
    39     1     3   ar
    40     2     4   ar
    41    29    24    1
    42    40    35    1
    43    11     3    1
    44    11    20    1
    45    11    19    1
    46    13     4    1
    47    13    23    1
    48    13    34    1
    49    24    23   ar
    50    24    26   ar
    51     3     5   ar
    52     4     6   ar
    53    35    34   ar
    54    35    37   ar
    55    31    26    1
    56    23    25   ar
    57    34    36   ar
    58    26    28   ar
    59    42    37    1
    60    37    39   ar
    61    36    41    1
    62    36    38   ar
    63     5     6   ar
    64     5    15    1
    65     6    16    1
    66    25    30    1
    67    25    27   ar
    68    28    27   ar
    69    28    33    1
    70    39    38   ar
    71    39    44    1
    72    38    43    1
    73    27    32    1
