@<TRIPOS>MOLECULE
Name: Molecule_49 Comments:
 19 20 0 0 0
SMALL
GASTEIGER

@<TRIPOS>ATOM
      1 C           1.6106    0.6316   -0.3002 C.3     1  LIG1       -0.0158
      2 C           2.7267   -0.3783   -0.5577 C.3     1  LIG1       -0.0457
      3 C           2.3620   -0.0003    0.8675 C.3     1  LIG1       -0.0457
      4 H           1.8648    1.7131   -0.2453 H       1  LIG1        0.0349
      5 H           3.5158    0.2062   -1.0775 H       1  LIG1        0.0271
      6 H           2.2613   -1.2233   -1.0985 H       1  LIG1        0.0271
      7 H           3.2734    0.5002    1.2589 H       1  LIG1        0.0271
      8 H           2.0476   -0.9665    1.3173 H       1  LIG1        0.0271
      9 C           0.1425    0.2554   -0.1646 C.ar    1  LIG1       -0.0443
     10 C          -0.3206   -1.0797   -0.2115 C.ar    1  LIG1       -0.0583
     11 C          -0.7939    1.2896    0.0115 C.ar    1  LIG1       -0.0583
     12 C          -1.6852   -1.3580   -0.0833 C.ar    1  LIG1       -0.0615
     13 C          -2.1561    1.0026    0.1382 C.ar    1  LIG1       -0.0615
     14 C          -2.6011   -0.3192    0.0908 C.ar    1  LIG1       -0.0617
     15 H           0.3585   -1.9085   -0.3401 H       1  LIG1        0.0620
     16 H          -0.4668    2.3215    0.0502 H       1  LIG1        0.0620
     17 H          -2.0326   -2.3825   -0.1185 H       1  LIG1        0.0618
     18 H          -2.8673    1.8072    0.2734 H       1  LIG1        0.0618
     19 H          -3.6563   -0.5389    0.1895 H       1  LIG1        0.0618
@<TRIPOS>BOND
     1     6     2    1
     2     5     2    1
     3     2     1    1
     4     2     3    1
     5    15    10    1
     6     1     4    1
     7     1     9    1
     8     1     3    1
     9    10     9   ar
    10    10    12   ar
    11     9    11   ar
    12    17    12    1
    13    12    14   ar
    14    11    16    1
    15    11    13   ar
    16    14    13   ar
    17    14    19    1
    18    13    18    1
    19     3     7    1
    20     3     8    1
