@<TRIPOS>MOLECULE
Name: Molecule_39 Comments:
 7 6 0 0 0
SMALL
GASTEIGER

@<TRIPOS>ATOM
      1 C           0.0000    0.0000    1.4204 C.1     1  LIG1       -0.1194
      2 C           0.0000    0.0000    0.2149 C.1     1  LIG1       -0.1089
      3 H          -0.0000   -0.0000    2.4787 H       1  LIG1        0.1228
      4 C          -0.0000   -0.0000   -1.2483 C.3     1  LIG1       -0.0028
      5 H           0.5889    0.8644   -1.6184 H       1  LIG1        0.0361
      6 H           0.4541   -0.9422   -1.6184 H       1  LIG1        0.0361
      7 H          -1.0430    0.0778   -1.6184 H       1  LIG1        0.0361
@<TRIPOS>BOND
     1     5     4    1
     2     6     4    1
     3     7     4    1
     4     4     2    1
     5     2     1    3
     6     1     3    1
