@<TRIPOS>MOLECULE
Name: Molecule_37 Comments:
 18 17 0 0 0
SMALL
GASTEIGER

@<TRIPOS>ATOM
      1 C          -0.0441    0.3463    0.0000 C.3     1  LIG1       -0.0200
      2 C          -0.6048   -1.0752    0.0000 C.2     1  LIG1       -0.0857
      3 C           0.1367   -2.1934    0.0000 C.2     1  LIG1       -0.1021
      4 C          -0.5651    1.0672   -1.2563 C.3     1  LIG1       -0.0566
      5 C          -0.5651    1.0672    1.2563 C.3     1  LIG1       -0.0566
      6 C           1.5007    0.4046    0.0000 C.3     1  LIG1       -0.0566
      7 H          -0.2121    2.1211   -1.2818 H       1  LIG1        0.0238
      8 H          -0.2055    0.5558   -2.1756 H       1  LIG1        0.0238
      9 H          -1.6768    1.0753   -1.2751 H       1  LIG1        0.0238
     10 H          -0.2121    2.1211    1.2818 H       1  LIG1        0.0238
     11 H          -1.6768    1.0753    1.2751 H       1  LIG1        0.0238
     12 H          -0.2055    0.5558    2.1756 H       1  LIG1        0.0238
     13 H           1.8523    1.4592    0.0000 H       1  LIG1        0.0238
     14 H           1.9152   -0.0904    0.9047 H       1  LIG1        0.0238
     15 H           1.9152   -0.0904   -0.9047 H       1  LIG1        0.0238
     16 H          -0.3557   -3.1604    0.0000 H       1  LIG1        0.0532
     17 H          -1.6861   -1.1890    0.0000 H       1  LIG1        0.0572
     18 H           1.2193   -2.1734    0.0000 H       1  LIG1        0.0532
@<TRIPOS>BOND
     1     8     4    1
     2     7     4    1
     3     9     4    1
     4     4     1    1
     5    15     6    1
     6     2    17    1
     7     2     3    2
     8     2     1    1
     9    18     3    1
    10    16     3    1
    11    13     6    1
    12     6     1    1
    13     6    14    1
    14     1     5    1
    15     5    11    1
    16     5    10    1
    17     5    12    1
