@<TRIPOS>MOLECULE
Name: Molecule_17 Comments:
 44 43 0 0 0
SMALL
GASTEIGER

@<TRIPOS>ATOM
      1 C           0.5141    0.6691    0.0000 C.3     1  LIG1       -0.0244
      2 C          -0.5141   -0.6691   -0.0000 C.3     1  LIG1       -0.0244
      3 C           0.1197   -2.2048    0.0000 C.3     1  LIG1       -0.0321
      4 C          -1.4721   -0.5833    1.2383 C.3     1  LIG1       -0.0588
      5 C          -1.4721   -0.5833   -1.2383 C.3     1  LIG1       -0.0588
      6 H          -2.1938   -1.4082    1.3087 H       1  LIG1        0.0235
      7 H          -0.9479   -0.5242    2.2085 H       1  LIG1        0.0235
      8 H          -2.1835    0.2308    1.1641 H       1  LIG1        0.0235
      9 H          -2.1938   -1.4082   -1.3087 H       1  LIG1        0.0235
     10 H          -2.1835    0.2308   -1.1641 H       1  LIG1        0.0235
     11 H          -0.9479   -0.5242   -2.2085 H       1  LIG1        0.0235
     12 C          -0.1197    2.2048   -0.0000 C.3     1  LIG1       -0.0321
     13 C           1.4721    0.5833    1.2383 C.3     1  LIG1       -0.0588
     14 C           1.4721    0.5833   -1.2383 C.3     1  LIG1       -0.0588
     15 H           2.1938    1.4082    1.3087 H       1  LIG1        0.0235
     16 H           0.9479    0.5242    2.2085 H       1  LIG1        0.0235
     17 H           2.1835   -0.2308    1.1641 H       1  LIG1        0.0235
     18 H           2.1938    1.4082   -1.3087 H       1  LIG1        0.0235
     19 H           2.1835   -0.2308   -1.1641 H       1  LIG1        0.0235
     20 H           0.9479    0.5242   -2.2085 H       1  LIG1        0.0235
     21 C          -0.9969   -3.3184    0.0000 C.3     1  LIG1       -0.0596
     22 C           0.9754   -2.5630   -1.2541 C.3     1  LIG1       -0.0596
     23 C           0.9754   -2.5630    1.2541 C.3     1  LIG1       -0.0596
     24 H          -0.5436   -4.3318    0.0000 H       1  LIG1        0.0235
     25 H          -1.6303   -3.3283    0.9044 H       1  LIG1        0.0235
     26 H          -1.6303   -3.3283   -0.9044 H       1  LIG1        0.0235
     27 H           1.1569   -3.6547   -1.3223 H       1  LIG1        0.0235
     28 H           0.4813   -2.2586   -2.1984 H       1  LIG1        0.0235
     29 H           2.0050   -2.1908   -1.2145 H       1  LIG1        0.0235
     30 H           1.1569   -3.6547    1.3223 H       1  LIG1        0.0235
     31 H           2.0050   -2.1908    1.2145 H       1  LIG1        0.0235
     32 H           0.4813   -2.2586    2.1984 H       1  LIG1        0.0235
     33 C           0.9969    3.3184    0.0000 C.3     1  LIG1       -0.0596
     34 C          -0.9754    2.5630   -1.2541 C.3     1  LIG1       -0.0596
     35 C          -0.9754    2.5630    1.2541 C.3     1  LIG1       -0.0596
     36 H           0.5436    4.3318   -0.0000 H       1  LIG1        0.0235
     37 H           1.6303    3.3283    0.9044 H       1  LIG1        0.0235
     38 H           1.6303    3.3283   -0.9044 H       1  LIG1        0.0235
     39 H          -1.1569    3.6547   -1.3223 H       1  LIG1        0.0235
     40 H          -0.4813    2.2586   -2.1984 H       1  LIG1        0.0235
     41 H          -2.0050    2.1908   -1.2145 H       1  LIG1        0.0235
     42 H          -1.1569    3.6547    1.3223 H       1  LIG1        0.0235
     43 H          -2.0050    2.1908    1.2145 H       1  LIG1        0.0235
     44 H          -0.4813    2.2586    2.1984 H       1  LIG1        0.0235
@<TRIPOS>BOND
     1    20    14    1
     2    11     5    1
     3    40    34    1
     4    28    22    1
     5    39    34    1
     6    27    22    1
     7    18    14    1
     8     9     5    1
     9    22    29    1
    10    22     3    1
    11    34    41    1
    12    34    12    1
    13    14    19    1
    14    14     1    1
    15     5    10    1
    16     5     2    1
    17    26    21    1
    18    38    33    1
    19    24    21    1
    20    33    36    1
    21    33    12    1
    22    33    37    1
    23     1    12    1
    24     1     2    1
    25     1    13    1
    26    21     3    1
    27    21    25    1
    28    12    35    1
    29     3     2    1
    30     3    23    1
    31     2     4    1
    32    17    13    1
    33     8     4    1
    34    43    35    1
    35    31    23    1
    36    13    15    1
    37    13    16    1
    38     4     6    1
    39     4     7    1
    40    23    30    1
    41    23    32    1
    42    35    42    1
    43    35    44    1
