@<TRIPOS>MOLECULE
Name: Molecule_27 Comments:
 76 83 0 0 0
SMALL
GASTEIGER

@<TRIPOS>ATOM
      1 C           0.7840    0.1124    0.0034 C.3     1  LIG1        0.0000
      2 C          -0.7828   -0.1133    0.0032 C.3     1  LIG1        0.0000
      3 O           1.5725   -1.0698    0.0212 O.3     1  LIG1        0.0000
      4 O          -1.5696    1.0682    0.0248 O.3     1  LIG1        0.0000
      5 N           0.5089    2.1824   -1.3861 N.pl3   1  LIG1        0.0000
      6 N           1.7866    0.6041   -2.4308 N.pl3   1  LIG1        0.0000
      7 C           1.0941    0.9311   -1.2389 C.3     1  LIG1        0.0000
      8 C           0.8363    2.6469   -2.6858 C.2     1  LIG1        0.0000
      9 C           1.5911    1.7083   -3.3090 C.2     1  LIG1        0.0000
     10 C           0.3415    3.9505   -3.2531 C.3     1  LIG1        0.0000
     11 C           2.1336    1.7472   -4.7142 C.3     1  LIG1        0.0000
     12 C           2.4735   -0.6191   -2.8024 C.3     1  LIG1        0.0000
     13 N           1.7810    0.6210    2.4322 N.pl3   1  LIG1        0.0000
     14 N           0.4995    2.1877    1.3831 N.pl3   1  LIG1        0.0000
     15 C           1.1070    0.9492    1.2315 C.3     1  LIG1        0.0000
     16 C           1.5532    1.7158    3.3157 C.2     1  LIG1        0.0000
     17 C           0.7899    2.6420    2.6915 C.2     1  LIG1        0.0000
     18 C           2.0862    1.7587    4.7236 C.3     1  LIG1        0.0000
     19 C           0.2770    3.9438    3.2442 C.3     1  LIG1        0.0000
     20 C           2.4781   -0.5935    2.8135 C.3     1  LIG1        0.0000
     21 N          -0.5101   -2.1808   -1.3881 N.pl3   1  LIG1        0.0000
     22 N          -1.7862   -0.6044   -2.4297 N.pl3   1  LIG1        0.0000
     23 C          -1.0941   -0.9311   -1.2390 C.3     1  LIG1        0.0000
     24 C          -0.8362   -2.6462   -2.6865 C.2     1  LIG1        0.0000
     25 C          -1.5906   -1.7083   -3.3084 C.2     1  LIG1        0.0000
     26 C          -0.3406   -3.9503   -3.2532 C.3     1  LIG1        0.0000
     27 C          -2.1330   -1.7474   -4.7132 C.3     1  LIG1        0.0000
     28 C          -2.4730    0.6186   -2.8016 C.3     1  LIG1        0.0000
     29 N          -1.7806   -0.6208    2.4330 N.pl3   1  LIG1        0.0000
     30 N          -0.4983   -2.1878    1.3814 N.pl3   1  LIG1        0.0000
     31 C          -1.1062   -0.9489    1.2319 C.3     1  LIG1        0.0000
     32 C          -1.5529   -1.7160    3.3165 C.2     1  LIG1        0.0000
     33 C          -0.7887   -2.6423    2.6910 C.2     1  LIG1        0.0000
     34 C          -2.0866   -1.7588    4.7242 C.3     1  LIG1        0.0000
     35 C          -0.2770   -3.9440    3.2448 C.3     1  LIG1        0.0000
     36 C          -2.4784    0.5936    2.8144 C.3     1  LIG1        0.0000
     37 FE          0.7292   -2.8267   -0.0094 Fe      1  LIG1        0.0000
     38 CL         -0.2487   -4.8881   -0.0621 Cl      1  LIG1        0.0000
     39 FE         -0.7355    2.8285   -0.0163 Fe      1  LIG1        0.0000
     40 CL          0.2440    4.8897   -0.0603 Cl      1  LIG1        0.0000
     41 H           0.6435    4.1185   -4.3015 H       1  LIG1        0.0000
     42 H          -0.7675    3.9691   -3.2110 H       1  LIG1        0.0000
     43 H           0.7468    4.7960   -2.6677 H       1  LIG1        0.0000
     44 H           1.7258    0.8860   -5.2835 H       1  LIG1        0.0000
     45 H           1.8745    2.6689   -5.2645 H       1  LIG1        0.0000
     46 H           3.2392    1.6680   -4.6802 H       1  LIG1        0.0000
     47 H           2.5267   -1.3619   -1.9961 H       1  LIG1        0.0000
     48 H           1.9416   -1.0908   -3.6555 H       1  LIG1        0.0000
     49 H           3.5123   -0.3814   -3.1095 H       1  LIG1        0.0000
     50 H           1.6934    0.8875    5.2879 H       1  LIG1        0.0000
     51 H           3.1936    1.6991    4.6939 H       1  LIG1        0.0000
     52 H           1.8088    2.6744    5.2750 H       1  LIG1        0.0000
     53 H           0.5790    4.1223    4.2917 H       1  LIG1        0.0000
     54 H           0.6755    4.7847    2.6441 H       1  LIG1        0.0000
     55 H          -0.8313    3.9531    3.1984 H       1  LIG1        0.0000
     56 H           2.5667   -1.3334    2.0086 H       1  LIG1        0.0000
     57 H           3.5061   -0.3419    3.1448 H       1  LIG1        0.0000
     58 H           1.9354   -1.0775    3.6530 H       1  LIG1        0.0000
     59 H          -0.6427   -4.1175   -4.3017 H       1  LIG1        0.0000
     60 H           0.7683   -3.9696   -3.2112 H       1  LIG1        0.0000
     61 H          -0.7465   -4.7966   -2.6691 H       1  LIG1        0.0000
     62 H          -1.7255   -0.8862   -5.2825 H       1  LIG1        0.0000
     63 H          -1.8741   -2.6689   -5.2639 H       1  LIG1        0.0000
     64 H          -3.2386   -1.6683   -4.6791 H       1  LIG1        0.0000
     65 H          -2.5266    1.3616   -1.9959 H       1  LIG1        0.0000
     66 H          -1.9411    1.0903   -3.6546 H       1  LIG1        0.0000
     67 H          -3.5118    0.3809   -3.1087 H       1  LIG1        0.0000
     68 H          -1.6940   -0.8876    5.2886 H       1  LIG1        0.0000
     69 H          -3.1941   -1.6992    4.6943 H       1  LIG1        0.0000
     70 H          -1.8091   -2.6745    5.2756 H       1  LIG1        0.0000
     71 H          -0.5794   -4.1229    4.2920 H       1  LIG1        0.0000
     72 H          -0.6751   -4.7842    2.6438 H       1  LIG1        0.0000
     73 H           0.8312   -3.9529    3.1992 H       1  LIG1        0.0000
     74 H          -2.5667    1.3335    2.0088 H       1  LIG1        0.0000
     75 H          -3.5064    0.3416    3.1455 H       1  LIG1        0.0000
     76 H          -1.9360    1.0777    3.6540 H       1  LIG1        0.0000
@<TRIPOS>BOND
     1    44    11    1
     2    62    27    1
     3    45    11    1
     4    63    27    1
     5    11    46    1
     6    11     9    1
     7    27    64    1
     8    27    25    1
     9    59    26    1
    10    41    10    1
    11    48    12    1
    12    66    28    1
    13     9     8    2
    14     9     6    1
    15    25    24    2
    16    25    22    1
    17    26    60    1
    18    26    24    1
    19    26    61    1
    20    10    42    1
    21    10     8    1
    22    10    43    1
    23    49    12    1
    24    67    28    1
    25    12     6    1
    26    12    47    1
    27    28    22    1
    28    28    65    1
    29    24    21    1
    30     8     5    1
    31     6     7    1
    32    22    23    1
    33    21    23    1
    34    21    37    1
    35     5     7    1
    36     5    39    1
    37    23     2    1
    38     7     1    1
    39    38    37    1
    40    40    39    1
    41    39     4    1
    42    39    14    1
    43    37     3    1
    44    37    30    1
    45     2     1    1
    46     2     4    1
    47     2    31    1
    48     1     3    1
    49     1    15    1
    50    15    14    1
    51    15    13    1
    52    31    30    1
    53    31    29    1
    54    30    33    1
    55    14    17    1
    56    56    20    1
    57    74    36    1
    58    13    20    1
    59    13    16    1
    60    29    36    1
    61    29    32    1
    62    72    35    1
    63    54    19    1
    64    33    35    1
    65    33    32    2
    66    17    19    1
    67    17    16    2
    68    20    57    1
    69    20    58    1
    70    36    75    1
    71    36    76    1
    72    55    19    1
    73    73    35    1
    74    19    53    1
    75    35    71    1
    76    16    18    1
    77    32    34    1
    78    51    18    1
    79    69    34    1
    80    18    52    1
    81    18    50    1
    82    34    70    1
    83    34    68    1
