@<TRIPOS>MOLECULE
Name: Molecule_18 Comments:
 44 43 0 0 0
SMALL
GASTEIGER

@<TRIPOS>ATOM
      1 C          -0.4601   -0.6737   -0.1029 C.3     1  LIG1       -0.0295
      2 C           0.4601    0.6737   -0.1029 C.3     1  LIG1       -0.0295
      3 C          -0.4400    1.9748   -0.2429 C.3     1  LIG1       -0.0450
      4 C           1.3215    0.7429    1.1844 C.3     1  LIG1       -0.0593
      5 C           1.4593    0.6707   -1.2985 C.3     1  LIG1       -0.0593
      6 H           2.0629    1.5611    1.1134 H       1  LIG1        0.0235
      7 H           0.6967    0.8940    2.0882 H       1  LIG1        0.0235
      8 H           1.9434   -0.1573    1.3355 H       1  LIG1        0.0235
      9 H           2.0916    1.5802   -1.3065 H       1  LIG1        0.0235
     10 H           2.1781   -0.1711   -1.2396 H       1  LIG1        0.0235
     11 H           0.9351    0.6277   -2.2742 H       1  LIG1        0.0235
     12 C           0.4400   -1.9748   -0.2429 C.3     1  LIG1       -0.0450
     13 C          -1.3215   -0.7429    1.1844 C.3     1  LIG1       -0.0593
     14 C          -1.4593   -0.6707   -1.2985 C.3     1  LIG1       -0.0593
     15 H          -2.0629   -1.5611    1.1134 H       1  LIG1        0.0235
     16 H          -0.6967   -0.8940    2.0882 H       1  LIG1        0.0235
     17 H          -1.9434    0.1573    1.3355 H       1  LIG1        0.0235
     18 H          -2.0916   -1.5802   -1.3065 H       1  LIG1        0.0235
     19 H          -2.1781    0.1711   -1.2396 H       1  LIG1        0.0235
     20 H          -0.9351   -0.6277   -2.2742 H       1  LIG1        0.0235
     21 C           0.1856    3.4056   -0.1467 C.3     1  LIG1       -0.0462
     22 H          -1.2867    1.9706    0.4676 H       1  LIG1        0.0273
     23 H          -0.8755    1.9087   -1.2614 H       1  LIG1        0.0273
     24 C          -0.7777    4.4155   -0.7987 C.3     1  LIG1       -0.0626
     25 C           0.4269    3.8813    1.3027 C.3     1  LIG1       -0.0626
     26 H           1.1285    3.4595   -0.7255 H       1  LIG1        0.0296
     27 H          -0.9500    4.1569   -1.8654 H       1  LIG1        0.0232
     28 H          -1.7573    4.4257   -0.2732 H       1  LIG1        0.0232
     29 H          -0.3467    5.4395   -0.7703 H       1  LIG1        0.0232
     30 H           0.8233    4.9193    1.2962 H       1  LIG1        0.0232
     31 H          -0.5262    3.8775    1.8742 H       1  LIG1        0.0232
     32 H           1.1566    3.2865    1.8681 H       1  LIG1        0.0232
     33 C          -0.1856   -3.4056   -0.1467 C.3     1  LIG1       -0.0462
     34 H           1.2867   -1.9706    0.4676 H       1  LIG1        0.0273
     35 H           0.8755   -1.9087   -1.2614 H       1  LIG1        0.0273
     36 C           0.7777   -4.4155   -0.7987 C.3     1  LIG1       -0.0626
     37 C          -0.4269   -3.8813    1.3027 C.3     1  LIG1       -0.0626
     38 H          -1.1285   -3.4595   -0.7255 H       1  LIG1        0.0296
     39 H           0.9500   -4.1569   -1.8654 H       1  LIG1        0.0232
     40 H           1.7573   -4.4257   -0.2732 H       1  LIG1        0.0232
     41 H           0.3467   -5.4395   -0.7703 H       1  LIG1        0.0232
     42 H          -0.8233   -4.9193    1.2962 H       1  LIG1        0.0232
     43 H           0.5262   -3.8775    1.8742 H       1  LIG1        0.0232
     44 H          -1.1566   -3.2865    1.8681 H       1  LIG1        0.0232
@<TRIPOS>BOND
     1    20    14    1
     2    11     5    1
     3    27    24    1
     4    39    36    1
     5     9     5    1
     6    18    14    1
     7     5    10    1
     8     5     2    1
     9    14    19    1
    10    14     1    1
    11    23     3    1
    12    35    12    1
    13    24    29    1
    14    24    28    1
    15    24    21    1
    16    36    41    1
    17    36    40    1
    18    36    33    1
    19    38    33    1
    20    26    21    1
    21    12    33    1
    22    12     1    1
    23    12    34    1
    24     3    21    1
    25     3     2    1
    26     3    22    1
    27    33    37    1
    28    21    25    1
    29     2     1    1
    30     2     4    1
    31     1    13    1
    32     6     4    1
    33    15    13    1
    34    13    17    1
    35    13    16    1
    36     4     8    1
    37     4     7    1
    38    30    25    1
    39    42    37    1
    40    25    32    1
    41    25    31    1
    42    37    44    1
    43    37    43    1
