@<TRIPOS>MOLECULE
Name: Molecule_2 Comments:
 11 10 0 0 0
SMALL
GASTEIGER

@<TRIPOS>ATOM
      1 C          -0.0000    1.2596   -0.2685 C.3     1  LIG1       -0.0655
      2 C          -0.0000    0.0000    0.5925 C.3     1  LIG1       -0.0588
      3 C           0.0000   -1.2596   -0.2685 C.3     1  LIG1       -0.0655
      4 H           0.0000    2.1570    0.3853 H       1  LIG1        0.0230
      5 H          -0.9055    1.2877   -0.9114 H       1  LIG1        0.0230
      6 H           0.9055    1.2877   -0.9114 H       1  LIG1        0.0230
      7 H          -0.9030   -0.0000    1.2403 H       1  LIG1        0.0260
      8 H           0.9030   -0.0000    1.2403 H       1  LIG1        0.0260
      9 H          -0.0000   -2.1570    0.3853 H       1  LIG1        0.0230
     10 H           0.9055   -1.2877   -0.9114 H       1  LIG1        0.0230
     11 H          -0.9055   -1.2877   -0.9114 H       1  LIG1        0.0230
@<TRIPOS>BOND
     1     5     1    1
     2     6     1    1
     3    10     3    1
     4    11     3    1
     5     1     4    1
     6     1     2    1
     7     3     9    1
     8     3     2    1
     9     2     7    1
    10     2     8    1
