@<TRIPOS>MOLECULE
Name: Molecule_7 Comments:
 28 29 0 0 0
SMALL
GASTEIGER

@<TRIPOS>ATOM
      1 C           0.5511    0.5367    1.9786 C.3     1  LIG1       -0.0237
      2 C          -0.5511   -0.5367    1.9786 C.3     1  LIG1       -0.0237
      3 H           0.4570    1.1584    2.8947 H       1  LIG1        0.0316
      4 H           1.5411    0.0338    2.0245 H       1  LIG1        0.0316
      5 H          -0.4570   -1.1584    2.8947 H       1  LIG1        0.0316
      6 H          -1.5411   -0.0338    2.0245 H       1  LIG1        0.0316
      7 C           0.4723    1.4368    0.7672 C.ar    1  LIG1       -0.0470
      8 C          -0.6626    2.2374    0.5462 C.ar    1  LIG1       -0.0586
      9 C           1.5364    1.4839   -0.1503 C.ar    1  LIG1       -0.0586
     10 C          -0.7309    3.0669   -0.5772 C.ar    1  LIG1       -0.0615
     11 C           1.4624    2.3152   -1.2722 C.ar    1  LIG1       -0.0615
     12 C           0.3299    3.1053   -1.4858 C.ar    1  LIG1       -0.0617
     13 H          -1.4906    2.2197    1.2432 H       1  LIG1        0.0620
     14 H           2.4196    0.8760    0.0016 H       1  LIG1        0.0620
     15 H          -1.6068    3.6808   -0.7431 H       1  LIG1        0.0618
     16 H           2.2835    2.3465   -1.9766 H       1  LIG1        0.0618
     17 H           0.2749    3.7481   -2.3548 H       1  LIG1        0.0618
     18 C          -0.4723   -1.4368    0.7672 C.ar    1  LIG1       -0.0470
     19 C           0.6626   -2.2374    0.5462 C.ar    1  LIG1       -0.0586
     20 C          -1.5364   -1.4839   -0.1503 C.ar    1  LIG1       -0.0586
     21 C           0.7309   -3.0669   -0.5772 C.ar    1  LIG1       -0.0615
     22 C          -1.4624   -2.3152   -1.2722 C.ar    1  LIG1       -0.0615
     23 C          -0.3299   -3.1053   -1.4858 C.ar    1  LIG1       -0.0617
     24 H           1.4906   -2.2197    1.2432 H       1  LIG1        0.0620
     25 H          -2.4196   -0.8760    0.0016 H       1  LIG1        0.0620
     26 H           1.6068   -3.6808   -0.7431 H       1  LIG1        0.0618
     27 H          -2.2835   -2.3465   -1.9766 H       1  LIG1        0.0618
     28 H          -0.2749   -3.7481   -2.3548 H       1  LIG1        0.0618
@<TRIPOS>BOND
     1    28    23    1
     2    17    12    1
     3    27    22    1
     4    16    11    1
     5    23    22   ar
     6    23    21   ar
     7    12    11   ar
     8    12    10   ar
     9    22    20   ar
    10    11     9   ar
    11    15    10    1
    12    26    21    1
    13    10     8   ar
    14    21    19   ar
    15     9    14    1
    16     9     7   ar
    17    20    25    1
    18    20    18   ar
    19     8     7   ar
    20     8    13    1
    21    19    18   ar
    22    19    24    1
    23     7     1    1
    24    18     2    1
    25     1     2    1
    26     1     4    1
    27     1     3    1
    28     2     6    1
    29     2     5    1
