@<TRIPOS>MOLECULE
Name: Molecule_35 Comments:
 12 11 0 0 0
SMALL
GASTEIGER

@<TRIPOS>ATOM
      1 C          -1.6955   -0.2474   -0.2950 C.3     1  LIG1       -0.0618
      2 C          -0.5316    0.5280    0.3110 C.3     1  LIG1       -0.0379
      3 C           0.7044   -0.3293    0.3543 C.2     1  LIG1       -0.0914
      4 H          -2.6032    0.3921   -0.3068 H       1  LIG1        0.0233
      5 H          -1.9097   -1.1571    0.3061 H       1  LIG1        0.0233
      6 H          -1.4565   -0.5466   -1.3380 H       1  LIG1        0.0233
      7 H          -0.7927    0.8312    1.3472 H       1  LIG1        0.0305
      8 H          -0.3633    1.4486   -0.2901 H       1  LIG1        0.0305
      9 C           1.8247    0.0218   -0.2844 C.2     1  LIG1       -0.1026
     10 H           2.6998   -0.6178   -0.2333 H       1  LIG1        0.0532
     11 H           0.6850   -1.2560    0.9206 H       1  LIG1        0.0566
     12 H           1.8772    0.9417   -0.8587 H       1  LIG1        0.0532
@<TRIPOS>BOND
     1     6     1    1
     2    12     9    1
     3     4     1    1
     4     1     5    1
     5     1     2    1
     6     8     2    1
     7     9    10    1
     8     9     3    2
     9     2     3    1
    10     2     7    1
    11     3    11    1
