@<TRIPOS>MOLECULE
Name: Molecule_11 Comments:
 52 53 0 0 0
SMALL
GASTEIGER

@<TRIPOS>ATOM
      1 C           0.5596   -0.6027   -0.7698 C.3     1  LIG1        0.0049
      2 C          -0.5596    0.6027   -0.7698 C.3     1  LIG1        0.0049
      3 C          -0.5856    1.3784   -2.1562 C.3     1  LIG1       -0.0454
      4 C          -2.0535    0.0843   -0.5421 C.3     1  LIG1       -0.0454
      5 C          -1.5770    2.5536   -2.2723 C.3     1  LIG1       -0.0644
      6 H           0.3990    1.7683   -2.4295 H       1  LIG1        0.0271
      7 H          -0.8494    0.6877   -2.9793 H       1  LIG1        0.0271
      8 C          -2.7925   -0.7069   -1.6341 C.3     1  LIG1       -0.0644
      9 H          -2.1311   -0.5400    0.3659 H       1  LIG1        0.0271
     10 H          -2.6923    0.9718   -0.3457 H       1  LIG1        0.0271
     11 C           0.5856   -1.3784   -2.1562 C.3     1  LIG1       -0.0454
     12 C           2.0535   -0.0843   -0.5421 C.3     1  LIG1       -0.0454
     13 C           1.5770   -2.5536   -2.2723 C.3     1  LIG1       -0.0644
     14 H          -0.3990   -1.7683   -2.4295 H       1  LIG1        0.0271
     15 H           0.8494   -0.6877   -2.9793 H       1  LIG1        0.0271
     16 C           2.7925    0.7069   -1.6341 C.3     1  LIG1       -0.0644
     17 H           2.1311    0.5400    0.3659 H       1  LIG1        0.0271
     18 H           2.6923   -0.9718   -0.3457 H       1  LIG1        0.0271
     19 H          -1.4785    3.0101   -3.2800 H       1  LIG1        0.0230
     20 H          -2.6291    2.2240   -2.1719 H       1  LIG1        0.0230
     21 H          -1.3826    3.3454   -1.5242 H       1  LIG1        0.0230
     22 H          -3.8348   -0.8821   -1.2919 H       1  LIG1        0.0230
     23 H          -2.8611   -0.1521   -2.5895 H       1  LIG1        0.0230
     24 H          -2.3746   -1.7077   -1.8055 H       1  LIG1        0.0230
     25 H           1.4785   -3.0101   -3.2800 H       1  LIG1        0.0230
     26 H           2.6291   -2.2240   -2.1719 H       1  LIG1        0.0230
     27 H           1.3826   -3.3454   -1.5242 H       1  LIG1        0.0230
     28 H           3.8348    0.8821   -1.2919 H       1  LIG1        0.0230
     29 H           2.8611    0.1521   -2.5895 H       1  LIG1        0.0230
     30 H           2.3746    1.7077   -1.8055 H       1  LIG1        0.0230
     31 C          -0.2448    1.5990    0.4083 C.ar    1  LIG1       -0.0404
     32 C          -0.6902    1.3484    1.7347 C.ar    1  LIG1       -0.0580
     33 C           0.5043    2.7883    0.1964 C.ar    1  LIG1       -0.0580
     34 C          -0.4022    2.2344    2.7756 C.ar    1  LIG1       -0.0615
     35 C           0.7845    3.6653    1.2472 C.ar    1  LIG1       -0.0615
     36 C           0.3326    3.3896    2.5330 C.ar    1  LIG1       -0.0617
     37 H          -1.2599    0.4712    1.9869 H       1  LIG1        0.0620
     38 H           0.8835    3.0554   -0.7733 H       1  LIG1        0.0620
     39 H          -0.7521    2.0204    3.7774 H       1  LIG1        0.0618
     40 H           1.3575    4.5644    1.0602 H       1  LIG1        0.0618
     41 H           0.5531    4.0724    3.3434 H       1  LIG1        0.0618
     42 C           0.2448   -1.5990    0.4083 C.ar    1  LIG1       -0.0404
     43 C           0.6902   -1.3484    1.7347 C.ar    1  LIG1       -0.0580
     44 C          -0.5043   -2.7883    0.1964 C.ar    1  LIG1       -0.0580
     45 C           0.4022   -2.2344    2.7756 C.ar    1  LIG1       -0.0615
     46 C          -0.7845   -3.6653    1.2472 C.ar    1  LIG1       -0.0615
     47 C          -0.3326   -3.3896    2.5330 C.ar    1  LIG1       -0.0617
     48 H           1.2599   -0.4712    1.9869 H       1  LIG1        0.0620
     49 H          -0.8835   -3.0554   -0.7733 H       1  LIG1        0.0620
     50 H           0.7521   -2.0204    3.7774 H       1  LIG1        0.0618
     51 H          -1.3575   -4.5644    1.0602 H       1  LIG1        0.0618
     52 H          -0.5531   -4.0724    3.3434 H       1  LIG1        0.0618
@<TRIPOS>BOND
     1    25    13    1
     2    19     5    1
     3    15    11    1
     4     7     3    1
     5    23     8    1
     6    29    16    1
     7     6     3    1
     8    14    11    1
     9    13    26    1
    10    13    11    1
    11    13    27    1
    12     5    20    1
    13     5     3    1
    14     5    21    1
    15    11     1    1
    16     3     2    1
    17    30    16    1
    18    24     8    1
    19     8    22    1
    20     8     4    1
    21    16    28    1
    22    16    12    1
    23    38    33    1
    24    49    44    1
    25     2     1    1
    26     2     4    1
    27     2    31    1
    28     1    12    1
    29     1    42    1
    30     4    10    1
    31     4     9    1
    32    12    18    1
    33    12    17    1
    34    33    31   ar
    35    33    35   ar
    36    44    42   ar
    37    44    46   ar
    38    42    43   ar
    39    31    32   ar
    40    40    35    1
    41    51    46    1
    42    35    36   ar
    43    46    47   ar
    44    43    48    1
    45    43    45   ar
    46    32    37    1
    47    32    34   ar
    48    36    34   ar
    49    36    41    1
    50    47    45   ar
    51    47    52    1
    52    34    39    1
    53    45    50    1
