@<TRIPOS>MOLECULE
Name: Molecule_1 Comments:
 8 7 0 0 0
SMALL
GASTEIGER

@<TRIPOS>ATOM
      1 C          -0.0000    0.0000    0.7612 C.3     1  LIG1       -0.0681
      2 C           0.0000   -0.0000   -0.7612 C.3     1  LIG1       -0.0681
      3 H          -0.2272    1.0173    1.1452 H       1  LIG1        0.0227
      4 H           0.2272   -1.0173   -1.1452 H       1  LIG1        0.0227
      5 H           0.9946   -0.3119    1.1452 H       1  LIG1        0.0227
      6 H          -0.7674   -0.7054    1.1452 H       1  LIG1        0.0227
      7 H           0.7674    0.7054   -1.1452 H       1  LIG1        0.0227
      8 H          -0.9946    0.3119   -1.1452 H       1  LIG1        0.0227
@<TRIPOS>BOND
     1     4     2    1
     2     7     2    1
     3     8     2    1
     4     2     1    1
     5     1     3    1
     6     1     5    1
     7     1     6    1
