@<TRIPOS>MOLECULE
Name: Molecule_38 Comments:
 4 3 0 0 0
SMALL
GASTEIGER

@<TRIPOS>ATOM
      1 C           0.0000    0.0000    0.6027 C.1     1  LIG1       -0.1225
      2 C           0.0000    0.0000   -0.6027 C.1     1  LIG1       -0.1225
      3 H           0.0000    0.0000    1.6611 H       1  LIG1        0.1225
      4 H           0.0000    0.0000   -1.6611 H       1  LIG1        0.1225
@<TRIPOS>BOND
     1     4     2    1
     2     2     1    3
     3     1     3    1
