@<TRIPOS>MOLECULE
Name: Molecule_51 Comments:
 14 14 0 0 0
SMALL
GASTEIGER

@<TRIPOS>ATOM
      1 C           0.0000    0.0000    0.5854 C.ar    1  LIG1        0.0247
      2 C          -0.0000    1.2132   -0.1175 C.ar    1  LIG1       -0.0463
      3 C           0.0000   -1.2134   -0.1174 C.ar    1  LIG1       -0.0463
      4 C          -0.0000    1.2110   -1.5161 C.ar    1  LIG1       -0.0606
      5 C           0.0000   -1.2112   -1.5159 C.ar    1  LIG1       -0.0606
      6 C           0.0000   -0.0003   -2.2159 C.ar    1  LIG1       -0.0617
      7 C           0.0000    0.0000    2.0157 C.1     1  LIG1       -0.0697
      8 H          -0.0000    2.1567    0.4164 H       1  LIG1        0.0630
      9 H           0.0000   -2.1566    0.4167 H       1  LIG1        0.0630
     10 H          -0.0000    2.1475   -2.0583 H       1  LIG1        0.0618
     11 H           0.0000   -2.1480   -2.0580 H       1  LIG1        0.0618
     12 H           0.0000   -0.0003   -3.2983 H       1  LIG1        0.0618
     13 C           0.0000    0.0000    3.2138 C.1     1  LIG1       -0.1139
     14 H           0.0000    0.0000    4.2759 H       1  LIG1        0.1232
@<TRIPOS>BOND
     1    12     6    1
     2     6     4   ar
     3     6     5   ar
     4    10     4    1
     5    11     5    1
     6     4     2   ar
     7     5     3   ar
     8     2     8    1
     9     2     1   ar
    10     3     9    1
    11     3     1   ar
    12     1     7    1
    13     7    13    3
    14    13    14    1
