@<TRIPOS>MOLECULE
Name: Molecule_16 Comments:
 38 37 0 0 0
SMALL
GASTEIGER

@<TRIPOS>ATOM
      1 C          -0.6117   -0.5514    0.1925 C.3     1  LIG1       -0.0272
      2 C           0.6117    0.5514    0.1925 C.3     1  LIG1       -0.0272
      3 C           0.1082    2.0820    0.0620 C.3     1  LIG1       -0.0411
      4 C           1.4188    0.4008    1.5272 C.3     1  LIG1       -0.0591
      5 C           1.6521    0.2936   -0.9251 C.3     1  LIG1       -0.0591
      6 H           2.3390    1.0222    1.5248 H       1  LIG1        0.0235
      7 H           0.8270    0.7161    2.4098 H       1  LIG1        0.0235
      8 H           1.7837   -0.6285    1.6980 H       1  LIG1        0.0235
      9 H           2.4481    1.0665   -0.9217 H       1  LIG1        0.0235
     10 H           2.1887   -0.6618   -0.7599 H       1  LIG1        0.0235
     11 H           1.1828    0.2985   -1.9298 H       1  LIG1        0.0235
     12 C          -0.1082   -2.0820    0.0620 C.3     1  LIG1       -0.0411
     13 C          -1.4188   -0.4008    1.5272 C.3     1  LIG1       -0.0591
     14 C          -1.6521   -0.2936   -0.9251 C.3     1  LIG1       -0.0591
     15 H          -2.3390   -1.0222    1.5248 H       1  LIG1        0.0235
     16 H          -0.8270   -0.7161    2.4098 H       1  LIG1        0.0235
     17 H          -1.7837    0.6285    1.6980 H       1  LIG1        0.0235
     18 H          -2.4481   -1.0665   -0.9217 H       1  LIG1        0.0235
     19 H          -2.1887    0.6618   -0.7599 H       1  LIG1        0.0235
     20 H          -1.1828   -0.2985   -1.9298 H       1  LIG1        0.0235
     21 C           1.1126    3.1353    0.5992 C.3     1  LIG1       -0.0622
     22 C          -0.2356    2.5527   -1.3806 C.3     1  LIG1       -0.0622
     23 H          -0.7909    2.2191    0.6895 H       1  LIG1        0.0301
     24 H           0.6905    4.1592    0.5022 H       1  LIG1        0.0233
     25 H           1.3083    3.0043    1.6825 H       1  LIG1        0.0233
     26 H           2.0730    3.1082    0.0443 H       1  LIG1        0.0233
     27 H          -0.6333    3.5901   -1.3537 H       1  LIG1        0.0233
     28 H           0.6722    2.5705   -2.0195 H       1  LIG1        0.0233
     29 H          -0.9914    1.9638   -1.9136 H       1  LIG1        0.0233
     30 C          -1.1126   -3.1353    0.5992 C.3     1  LIG1       -0.0622
     31 C           0.2356   -2.5527   -1.3806 C.3     1  LIG1       -0.0622
     32 H           0.7909   -2.2191    0.6895 H       1  LIG1        0.0301
     33 H          -0.6905   -4.1592    0.5022 H       1  LIG1        0.0233
     34 H          -1.3083   -3.0043    1.6825 H       1  LIG1        0.0233
     35 H          -2.0730   -3.1082    0.0443 H       1  LIG1        0.0233
     36 H           0.6333   -3.5901   -1.3537 H       1  LIG1        0.0233
     37 H          -0.6722   -2.5705   -2.0195 H       1  LIG1        0.0233
     38 H           0.9914   -1.9638   -1.9136 H       1  LIG1        0.0233
@<TRIPOS>BOND
     1    37    31    1
     2    28    22    1
     3    20    14    1
     4    11     5    1
     5    38    31    1
     6    29    22    1
     7    31    36    1
     8    31    12    1
     9    22    27    1
    10    22     3    1
    11    14    18    1
    12    14    19    1
    13    14     1    1
    14     5     9    1
    15     5    10    1
    16     5     2    1
    17    26    21    1
    18    35    30    1
    19     3     2    1
    20     3    21    1
    21     3    23    1
    22    12     1    1
    23    12    30    1
    24    12    32    1
    25     2     1    1
    26     2     4    1
    27     1    13    1
    28    33    30    1
    29    24    21    1
    30    21    25    1
    31    30    34    1
    32    15    13    1
    33     6     4    1
    34     4     8    1
    35     4     7    1
    36    13    17    1
    37    13    16    1
