@<TRIPOS>MOLECULE
Name: Molecule_44 Comments:
 5 4 0 0 0
SMALL
GASTEIGER

@<TRIPOS>ATOM
      1 C           0.0000    0.0000   -1.8530 C.1     1  LIG1       -0.1034
      2 C           0.0000    0.0000   -0.6477 C.1     1  LIG1        0.0097
      3 H           0.0000    0.0000   -2.9114 H       1  LIG1        0.1238
      4 C           0.0000    0.0000    0.7642 C.1     1  LIG1        0.1514
      5 N           0.0000    0.0000    1.9214 N.1     1  LIG1       -0.1816
@<TRIPOS>BOND
     1     3     1    1
     2     1     2    3
     3     2     4    1
     4     4     5    3
