@<TRIPOS>MOLECULE
Name: Molecule_5 Comments:
 20 19 0 0 0
SMALL
GASTEIGER

@<TRIPOS>ATOM
      1 C          -0.1719    0.7605    0.0000 C.3     1  LIG1       -0.0444
      2 C           0.1719   -0.7605    0.0000 C.3     1  LIG1       -0.0444
      3 H           1.2817   -0.8802    0.0000 H       1  LIG1        0.0298
      4 C          -0.3769   -1.4678    1.2491 C.3     1  LIG1       -0.0624
      5 C          -0.3769   -1.4678   -1.2491 C.3     1  LIG1       -0.0624
      6 H          -0.1570   -2.5551    1.2013 H       1  LIG1        0.0232
      7 H           0.1045   -1.0914    2.1738 H       1  LIG1        0.0232
      8 H          -1.4773   -1.3262    1.3276 H       1  LIG1        0.0232
      9 H          -0.1570   -2.5551   -1.2013 H       1  LIG1        0.0232
     10 H          -1.4773   -1.3262   -1.3276 H       1  LIG1        0.0232
     11 H           0.1045   -1.0914   -2.1738 H       1  LIG1        0.0232
     12 H          -1.2817    0.8802    0.0000 H       1  LIG1        0.0298
     13 C           0.3769    1.4678    1.2491 C.3     1  LIG1       -0.0624
     14 C           0.3769    1.4678   -1.2491 C.3     1  LIG1       -0.0624
     15 H           0.1570    2.5551    1.2013 H       1  LIG1        0.0232
     16 H          -0.1045    1.0914    2.1738 H       1  LIG1        0.0232
     17 H           1.4773    1.3262    1.3276 H       1  LIG1        0.0232
     18 H           0.1570    2.5551   -1.2013 H       1  LIG1        0.0232
     19 H           1.4773    1.3262   -1.3276 H       1  LIG1        0.0232
     20 H          -0.1045    1.0914   -2.1738 H       1  LIG1        0.0232
@<TRIPOS>BOND
     1    11     5    1
     2    20    14    1
     3    19    14    1
     4    10     5    1
     5     5     9    1
     6     5     2    1
     7    14    18    1
     8    14     1    1
     9    12     1    1
    10     2     3    1
    11     2     1    1
    12     2     4    1
    13     1    13    1
    14    15    13    1
    15     6     4    1
    16    13    17    1
    17    13    16    1
    18     4     8    1
    19     4     7    1
