@<TRIPOS>MOLECULE
Name: Molecule_13 Comments:
 22 23 0 0 0
SMALL
GASTEIGER

@<TRIPOS>ATOM
      1 C           0.0000    0.0000    0.7609 C.ar    1  LIG1       -0.0179
      2 C          -0.0580    1.2111    1.5002 C.ar    1  LIG1       -0.0540
      3 C           0.0580   -1.2111    1.5002 C.ar    1  LIG1       -0.0540
      4 C          -0.0581    1.2024    2.8981 C.ar    1  LIG1       -0.0612
      5 C           0.0581   -1.2024    2.8981 C.ar    1  LIG1       -0.0612
      6 C          -0.0000   -0.0000    3.5949 C.ar    1  LIG1       -0.0617
      7 H          -0.1105    2.1735    1.0245 H       1  LIG1        0.0624
      8 H           0.1105   -2.1735    1.0245 H       1  LIG1        0.0624
      9 H          -0.1048    2.1369    3.4427 H       1  LIG1        0.0618
     10 H           0.1048   -2.1369    3.4427 H       1  LIG1        0.0618
     11 H           0.0000    0.0000    4.6773 H       1  LIG1        0.0618
     12 C           0.0000   -0.0000   -0.7609 C.ar    1  LIG1       -0.0179
     13 C          -0.0581   -1.2111   -1.5002 C.ar    1  LIG1       -0.0540
     14 C           0.0581    1.2111   -1.5002 C.ar    1  LIG1       -0.0540
     15 C          -0.0582   -1.2024   -2.8981 C.ar    1  LIG1       -0.0612
     16 C           0.0582    1.2024   -2.8981 C.ar    1  LIG1       -0.0612
     17 C          -0.0000    0.0000   -3.5949 C.ar    1  LIG1       -0.0617
     18 H          -0.1107   -2.1735   -1.0245 H       1  LIG1        0.0624
     19 H           0.1107    2.1735   -1.0245 H       1  LIG1        0.0624
     20 H          -0.1049   -2.1369   -3.4427 H       1  LIG1        0.0618
     21 H           0.1049    2.1369   -3.4427 H       1  LIG1        0.0618
     22 H           0.0000   -0.0000   -4.6773 H       1  LIG1        0.0618
@<TRIPOS>BOND
     1    22    17    1
     2    17    16   ar
     3    17    15   ar
     4    21    16    1
     5    20    15    1
     6    16    14   ar
     7    15    13   ar
     8    14    19    1
     9    14    12   ar
    10    13    18    1
    11    13    12   ar
    12    12     1    1
    13     1     3   ar
    14     1     2   ar
    15     8     3    1
    16     7     2    1
    17     3     5   ar
    18     2     4   ar
    19     5    10    1
    20     5     6   ar
    21     4     9    1
    22     4     6   ar
    23     6    11    1
