@<TRIPOS>MOLECULE
Name: Molecule_50 Comments:
 16 16 0 0 0
SMALL
GASTEIGER

@<TRIPOS>ATOM
      1 C           0.5141   -0.2331    0.0029 C.ar    1  LIG1       -0.0256
      2 C          -0.4074   -1.2959   -0.0071 C.ar    1  LIG1       -0.0546
      3 C           0.0233    1.0918    0.0158 C.ar    1  LIG1       -0.0546
      4 C          -1.7826   -1.0454   -0.0043 C.ar    1  LIG1       -0.0612
      5 C          -1.3545    1.3333    0.0184 C.ar    1  LIG1       -0.0612
      6 C          -2.2555    0.2674    0.0084 C.ar    1  LIG1       -0.0617
      7 C           1.9696   -0.5590   -0.0006 C.2     1  LIG1       -0.0617
      8 H          -0.0592   -2.3217   -0.0170 H       1  LIG1        0.0623
      9 H           0.6868    1.9420    0.0238 H       1  LIG1        0.0623
     10 H          -2.4822   -1.8713   -0.0121 H       1  LIG1        0.0618
     11 H          -1.7239    2.3508    0.0283 H       1  LIG1        0.0618
     12 H          -3.3208    0.4590    0.0105 H       1  LIG1        0.0618
     13 C           2.9528    0.3520    0.0080 C.2     1  LIG1       -0.0981
     14 H           2.2580   -1.6068   -0.0107 H       1  LIG1        0.0618
     15 H           2.7651    1.4166    0.0183 H       1  LIG1        0.0535
     16 H           3.9861    0.0201    0.0046 H       1  LIG1        0.0535
@<TRIPOS>BOND
     1     8     2    1
     2    10     4    1
     3    14     7    1
     4     2     4   ar
     5     2     1   ar
     6     4     6   ar
     7     7     1    1
     8     7    13    2
     9     1     3   ar
    10    16    13    1
    11    13    15    1
    12     6    12    1
    13     6     5   ar
    14     3     5   ar
    15     3     9    1
    16     5    11    1
