@<TRIPOS>MOLECULE
Name: Molecule_36 Comments:
 15 14 0 0 0
SMALL
GASTEIGER

@<TRIPOS>ATOM
      1 C           0.0318    1.1644    1.2584 C.3     1  LIG1       -0.0592
      2 C          -0.3128    0.3635    0.0000 C.3     1  LIG1       -0.0288
      3 C           0.4535   -0.9375   -0.0000 C.2     1  LIG1       -0.0885
      4 C          -0.1682   -2.1212   -0.0000 C.2     1  LIG1       -0.1024
      5 C           0.0318    1.1644   -1.2584 C.3     1  LIG1       -0.0592
      6 H          -0.2467    0.5869    2.1658 H       1  LIG1        0.0235
      7 H           1.1197    1.3898    1.2972 H       1  LIG1        0.0235
      8 H          -0.5313    2.1221    1.2696 H       1  LIG1        0.0235
      9 H           1.1197    1.3898   -1.2972 H       1  LIG1        0.0235
     10 H          -0.2467    0.5869   -2.1658 H       1  LIG1        0.0235
     11 H          -0.5313    2.1221   -1.2696 H       1  LIG1        0.0235
     12 H           0.4139   -3.0370   -0.0000 H       1  LIG1        0.0532
     13 H           1.5397   -0.9122    0.0000 H       1  LIG1        0.0569
     14 H          -1.2518   -2.1854   -0.0000 H       1  LIG1        0.0532
     15 H          -1.4096    0.1722   -0.0000 H       1  LIG1        0.0338
@<TRIPOS>BOND
     1    10     5    1
     2     9     5    1
     3    11     5    1
     4     5     2    1
     5     2     3    1
     6     2    15    1
     7     2     1    1
     8     3     4    2
     9     3    13    1
    10     4    12    1
    11     4    14    1
    12     1     8    1
    13     1     7    1
    14     1     6    1
