@<TRIPOS>MOLECULE
Name: Molecule_30a Comments:
 8 7 0 0 0
SMALL
GASTEIGER

@<TRIPOS>ATOM
      1 C          -0.0000   -0.0000    0.7585 C.3     1  LIG1       -0.0681
      2 C           0.0000    0.0000   -0.7585 C.3     1  LIG1       -0.0681
      3 H           0.4928    0.9231    1.1311 H       1  LIG1        0.0227
      4 H          -0.4928   -0.9231   -1.1311 H       1  LIG1        0.0227
      5 H           0.5530   -0.8883    1.1311 H       1  LIG1        0.0227
      6 H          -1.0458   -0.0348    1.1311 H       1  LIG1        0.0227
      7 H           1.0458    0.0348   -1.1311 H       1  LIG1        0.0227
      8 H          -0.5530    0.8883   -1.1311 H       1  LIG1        0.0227
@<TRIPOS>BOND
     1     4     2    1
     2     7     2    1
     3     8     2    1
     4     2     1    1
     5     1     5    1
     6     1     6    1
     7     1     3    1
