@<TRIPOS>MOLECULE
Name: Molecule_9 Comments:
 38 37 0 0 0
SMALL
GASTEIGER

@<TRIPOS>ATOM
      1 C          -0.8286    0.0391   -0.1470 C.3     1  LIG1       -0.0272
      2 C           0.7219   -0.0262    0.3842 C.3     1  LIG1       -0.0272
      3 C           0.8048    0.6135    1.8047 C.3     1  LIG1       -0.0591
      4 C           1.2822   -1.4951    0.5913 C.3     1  LIG1       -0.0500
      5 C           1.7012    0.7468   -0.5878 C.3     1  LIG1       -0.0500
      6 H           1.8239    0.5347    2.2357 H       1  LIG1        0.0235
      7 H           0.5555    1.6902    1.8009 H       1  LIG1        0.0235
      8 H           0.1319    0.1046    2.5232 H       1  LIG1        0.0235
      9 C           1.4367   -2.4106   -0.6287 C.3     1  LIG1       -0.0648
     10 H           2.2922   -1.4320    1.0463 H       1  LIG1        0.0268
     11 H           0.6823   -2.0373    1.3520 H       1  LIG1        0.0268
     12 C           3.1751    0.8512   -0.1651 C.3     1  LIG1       -0.0648
     13 H           1.7026    0.2611   -1.5833 H       1  LIG1        0.0268
     14 H           1.3708    1.7789   -0.7517 H       1  LIG1        0.0268
     15 C          -0.9252   -0.1655   -1.6900 C.3     1  LIG1       -0.0591
     16 C          -1.6705   -1.0992    0.5595 C.3     1  LIG1       -0.0500
     17 C          -1.5682    1.4049    0.1763 C.3     1  LIG1       -0.0500
     18 H          -1.9746   -0.1096   -2.0424 H       1  LIG1        0.0235
     19 H          -0.3919    0.6275   -2.2482 H       1  LIG1        0.0235
     20 H          -0.5277   -1.1310   -2.0320 H       1  LIG1        0.0235
     21 C          -3.1692   -1.2041    0.2292 C.3     1  LIG1       -0.0648
     22 H          -1.2576   -2.0903    0.2936 H       1  LIG1        0.0268
     23 H          -1.6041   -0.9852    1.6606 H       1  LIG1        0.0268
     24 C          -1.0157    2.7270   -0.3703 C.3     1  LIG1       -0.0648
     25 H          -2.5923    1.3543   -0.2459 H       1  LIG1        0.0268
     26 H          -1.6878    1.5216    1.2747 H       1  LIG1        0.0268
     27 H           1.9212   -3.3554   -0.3029 H       1  LIG1        0.0230
     28 H           0.4665   -2.7064   -1.0603 H       1  LIG1        0.0230
     29 H           2.0846   -1.9557   -1.4039 H       1  LIG1        0.0230
     30 H           3.7332    1.4151   -0.9426 H       1  LIG1        0.0230
     31 H           3.2873    1.4072    0.7870 H       1  LIG1        0.0230
     32 H           3.6556   -0.1431   -0.0813 H       1  LIG1        0.0230
     33 H          -3.5981   -2.0657    0.7839 H       1  LIG1        0.0230
     34 H          -3.7327   -0.3074    0.5537 H       1  LIG1        0.0230
     35 H          -3.3406   -1.3906   -0.8494 H       1  LIG1        0.0230
     36 H          -1.7348    3.5381   -0.1271 H       1  LIG1        0.0230
     37 H          -0.0694    3.0246    0.1131 H       1  LIG1        0.0230
     38 H          -0.9040    2.7008   -1.4727 H       1  LIG1        0.0230
@<TRIPOS>BOND
     1    19    15    1
     2    18    15    1
     3    20    15    1
     4    15     1    1
     5    13     5    1
     6    38    24    1
     7    29     9    1
     8    28     9    1
     9    30    12    1
    10    35    21    1
    11    14     5    1
    12     9    27    1
    13     9     4    1
    14     5    12    1
    15     5     2    1
    16    24    36    1
    17    24    37    1
    18    24    17    1
    19    25    17    1
    20    12    32    1
    21    12    31    1
    22     1    17    1
    23     1     2    1
    24     1    16    1
    25    17    26    1
    26    21    34    1
    27    21    16    1
    28    21    33    1
    29    22    16    1
    30     2     4    1
    31     2     3    1
    32    16    23    1
    33     4    10    1
    34     4    11    1
    35     7     3    1
    36     3     6    1
    37     3     8    1
