@<TRIPOS>MOLECULE
Name: Molecule_52 Comments:
 13 13 0 0 0
SMALL
GASTEIGER

@<TRIPOS>ATOM
      1 C           0.0000    0.0000    0.6025 C.ar    1  LIG1        0.0518
      2 C           0.0000    1.2131   -0.1002 C.ar    1  LIG1       -0.0444
      3 C          -0.0000   -1.2131   -0.1002 C.ar    1  LIG1       -0.0444
      4 C           0.0000    1.2113   -1.4992 C.ar    1  LIG1       -0.0605
      5 C          -0.0000   -1.2113   -1.4992 C.ar    1  LIG1       -0.0605
      6 C          -0.0000    0.0000   -2.1981 C.ar    1  LIG1       -0.0617
      7 C           0.0000    0.0000    2.0359 C.1     1  LIG1        0.0992
      8 H           0.0000    2.1559    0.4336 H       1  LIG1        0.0630
      9 H          -0.0000   -2.1559    0.4336 H       1  LIG1        0.0630
     10 H          -0.0000    2.1482   -2.0411 H       1  LIG1        0.0618
     11 H           0.0000   -2.1482   -2.0411 H       1  LIG1        0.0618
     12 H          -0.0000    0.0000   -3.2805 H       1  LIG1        0.0618
     13 N           0.0000    0.0000    3.1843 N.1     1  LIG1       -0.1909
@<TRIPOS>BOND
     1    12     6    1
     2     6     4   ar
     3     6     5   ar
     4    10     4    1
     5    11     5    1
     6     4     2   ar
     7     5     3   ar
     8     2     8    1
     9     2     1   ar
    10     3     9    1
    11     3     1   ar
    12     1     7    1
    13     7    13    3
