@<TRIPOS>MOLECULE
Name: Molecule_12 Comments:
 68 73 0 0 0
SMALL
GASTEIGER

@<TRIPOS>ATOM
      1 C          -0.0000   -0.0000    0.8378 C.3     1  LIG1        0.0630
      2 C           0.0000    0.0000   -0.8378 C.3     1  LIG1        0.0630
      3 C          -0.3061    1.4775    1.3926 C.ar    1  LIG1       -0.0311
      4 C          -0.5368    2.5910    0.5352 C.ar    1  LIG1       -0.0574
      5 C          -0.3669    1.7710    2.7692 C.ar    1  LIG1       -0.0574
      6 C          -0.7993    3.8577    1.0263 C.ar    1  LIG1       -0.0615
      7 C          -0.6290    3.0358    3.2548 C.ar    1  LIG1       -0.0615
      8 C          -0.8463    4.0847    2.3888 C.ar    1  LIG1       -0.0617
      9 H          -0.5219    2.5189   -0.5229 H       1  LIG1        0.0621
     10 H          -0.2262    1.0917    3.5164 H       1  LIG1        0.0621
     11 H          -0.9655    4.6601    0.3281 H       1  LIG1        0.0618
     12 H          -0.6577    3.1746    4.3235 H       1  LIG1        0.0618
     13 H          -1.0502    5.0690    2.7762 H       1  LIG1        0.0618
     14 C           0.3061   -1.4775   -1.3926 C.ar    1  LIG1       -0.0311
     15 C           0.5368   -2.5910   -0.5352 C.ar    1  LIG1       -0.0574
     16 C           0.3669   -1.7710   -2.7692 C.ar    1  LIG1       -0.0574
     17 C           0.7993   -3.8577   -1.0263 C.ar    1  LIG1       -0.0615
     18 C           0.6290   -3.0358   -3.2548 C.ar    1  LIG1       -0.0615
     19 C           0.8463   -4.0847   -2.3888 C.ar    1  LIG1       -0.0617
     20 H           0.5219   -2.5189    0.5229 H       1  LIG1        0.0621
     21 H           0.2262   -1.0917   -3.5164 H       1  LIG1        0.0621
     22 H           0.9655   -4.6601   -0.3281 H       1  LIG1        0.0618
     23 H           0.6577   -3.1746   -4.3235 H       1  LIG1        0.0618
     24 H           1.0502   -5.0690   -2.7762 H       1  LIG1        0.0618
     25 C          -1.4326    0.4736   -1.3926 C.ar    1  LIG1       -0.0311
     26 C          -2.5122    0.8306   -0.5352 C.ar    1  LIG1       -0.0574
     27 C          -1.7171    0.5677   -2.7692 C.ar    1  LIG1       -0.0574
     28 C          -3.7405    1.2367   -1.0263 C.ar    1  LIG1       -0.0615
     29 C          -2.9436    0.9732   -3.2548 C.ar    1  LIG1       -0.0615
     30 C          -3.9606    1.3095   -2.3888 C.ar    1  LIG1       -0.0617
     31 H          -2.4424    0.8075    0.5229 H       1  LIG1        0.0621
     32 H          -1.0585    0.3500   -3.5164 H       1  LIG1        0.0621
     33 H          -4.5185    1.4939   -0.3281 H       1  LIG1        0.0618
     34 H          -3.0782    1.0177   -4.3235 H       1  LIG1        0.0618
     35 H          -4.9149    1.6250   -2.7762 H       1  LIG1        0.0618
     36 C           1.1265    1.0038   -1.3926 C.ar    1  LIG1       -0.0311
     37 C           1.9754    1.7604   -0.5352 C.ar    1  LIG1       -0.0574
     38 C           1.3502    1.2032   -2.7692 C.ar    1  LIG1       -0.0574
     39 C           2.9413    2.6210   -1.0263 C.ar    1  LIG1       -0.0615
     40 C           2.3146    2.0626   -3.2548 C.ar    1  LIG1       -0.0615
     41 C           3.1143    2.7753   -2.3888 C.ar    1  LIG1       -0.0617
     42 H           1.9205    1.7114    0.5229 H       1  LIG1        0.0621
     43 H           0.8324    0.7417   -3.5164 H       1  LIG1        0.0621
     44 H           3.5530    3.1662   -0.3281 H       1  LIG1        0.0618
     45 H           2.4204    2.1569   -4.3235 H       1  LIG1        0.0618
     46 H           3.8647    3.4440   -2.7762 H       1  LIG1        0.0618
     47 C          -1.1265   -1.0038    1.3926 C.ar    1  LIG1       -0.0311
     48 C          -1.9754   -1.7604    0.5352 C.ar    1  LIG1       -0.0574
     49 C          -1.3502   -1.2032    2.7692 C.ar    1  LIG1       -0.0574
     50 C          -2.9413   -2.6210    1.0263 C.ar    1  LIG1       -0.0615
     51 C          -2.3146   -2.0626    3.2548 C.ar    1  LIG1       -0.0615
     52 C          -3.1143   -2.7753    2.3888 C.ar    1  LIG1       -0.0617
     53 H          -1.9205   -1.7114   -0.5229 H       1  LIG1        0.0621
     54 H          -0.8324   -0.7417    3.5164 H       1  LIG1        0.0621
     55 H          -3.5530   -3.1662    0.3281 H       1  LIG1        0.0618
     56 H          -2.4204   -2.1569    4.3235 H       1  LIG1        0.0618
     57 H          -3.8647   -3.4440    2.7762 H       1  LIG1        0.0618
     58 C           1.4326   -0.4736    1.3926 C.ar    1  LIG1       -0.0311
     59 C           2.5122   -0.8306    0.5352 C.ar    1  LIG1       -0.0574
     60 C           1.7171   -0.5677    2.7692 C.ar    1  LIG1       -0.0574
     61 C           3.7405   -1.2367    1.0263 C.ar    1  LIG1       -0.0615
     62 C           2.9436   -0.9732    3.2548 C.ar    1  LIG1       -0.0615
     63 C           3.9606   -1.3095    2.3888 C.ar    1  LIG1       -0.0617
     64 H           2.4424   -0.8075   -0.5229 H       1  LIG1        0.0621
     65 H           1.0585   -0.3500    3.5164 H       1  LIG1        0.0621
     66 H           4.5185   -1.4939    0.3281 H       1  LIG1        0.0618
     67 H           3.0782   -1.0177    4.3235 H       1  LIG1        0.0618
     68 H           4.9149   -1.6250    2.7762 H       1  LIG1        0.0618
@<TRIPOS>BOND
     1    45    40    1
     2    23    18    1
     3    34    29    1
     4    43    38    1
     5    21    16    1
     6    32    27    1
     7    18    16   ar
     8    18    19   ar
     9    29    27   ar
    10    29    30   ar
    11    40    38   ar
    12    40    41   ar
    13    46    41    1
    14    35    30    1
    15    24    19    1
    16    27    25   ar
    17    38    36   ar
    18    16    14   ar
    19    19    17   ar
    20    30    28   ar
    21    41    39   ar
    22    14     2    1
    23    14    15   ar
    24    36     2    1
    25    36    37   ar
    26    25     2    1
    27    25    26   ar
    28    39    37   ar
    29    39    44    1
    30    17    15   ar
    31    17    22    1
    32    28    26   ar
    33    28    33    1
    34     2     1    1
    35    15    20    1
    36    26    31    1
    37    37    42    1
    38    53    48    1
    39    64    59    1
    40     9     4    1
    41    11     6    1
    42    55    50    1
    43    66    61    1
    44    48    50   ar
    45    48    47   ar
    46    59    61   ar
    47    59    58   ar
    48     4     6   ar
    49     4     3   ar
    50     1    58    1
    51     1    47    1
    52     1     3    1
    53     6     8   ar
    54    61    63   ar
    55    50    52   ar
    56    58    60   ar
    57    47    49   ar
    58     3     5   ar
    59    52    57    1
    60    52    51   ar
    61    63    68    1
    62    63    62   ar
    63     8    13    1
    64     8     7   ar
    65    49    51   ar
    66    49    54    1
    67     5     7   ar
    68     5    10    1
    69    60    62   ar
    70    60    65    1
    71     7    12    1
    72    62    67    1
    73    51    56    1
