@<TRIPOS>MOLECULE
Name: Molecule_19 Comments:
 58 65 0 0 0
SMALL
GASTEIGER

@<TRIPOS>ATOM
      1 H          -2.2940   -3.4064    0.0602 H       1  LIG1        0.0301
      2 H           3.6530   -0.3750    2.4821 H       1  LIG1        0.0301
      3 C          -2.2031   -2.2977    0.0425 C.3     1  LIG1       -0.0400
      4 C           3.2965   -0.2285    1.4390 C.3     1  LIG1       -0.0400
      5 C          -1.2435    1.8161    1.2447 C.3     1  LIG1       -0.0466
      6 C          -1.3136    1.8074   -1.3014 C.3     1  LIG1       -0.0466
      7 C          -3.4347    1.8708    0.0100 C.3     1  LIG1       -0.0468
      8 H          -0.7747   -0.1036    2.1808 H       1  LIG1        0.0309
      9 H           1.7066   -2.2475   -0.6315 H       1  LIG1        0.0273
     10 H          -0.7867   -0.1328   -2.2165 H       1  LIG1        0.0309
     11 H           1.3163    2.0877    0.0191 H       1  LIG1        0.0273
     12 H          -4.5316    0.0184    0.0331 H       1  LIG1        0.0306
     13 H           4.9797    0.3830   -1.3855 H       1  LIG1        0.0271
     14 C          -1.2326    0.2666    1.2407 C.3     1  LIG1       -0.0313
     15 C           1.8972   -1.2084   -0.9649 C.3     1  LIG1       -0.0440
     16 C          -1.2566    0.2406   -1.2810 C.3     1  LIG1       -0.0313
     17 C           1.7006    1.2396   -0.5596 C.3     1  LIG1       -0.0440
     18 C          -3.4655    0.3393    0.0152 C.3     1  LIG1       -0.0346
     19 C           3.8709    0.2970   -1.4083 C.3     1  LIG1       -0.0473
     20 C          -2.8468   -1.7206    1.3065 C.3     1  LIG1       -0.0468
     21 C           3.9228   -1.3033    0.5299 C.3     1  LIG1       -0.0473
     22 C          -2.8802   -1.7572   -1.2267 C.3     1  LIG1       -0.0468
     23 C           3.7190    1.1697    0.9502 C.3     1  LIG1       -0.0473
     24 C          -0.7291   -1.9093    0.0113 C.3     1  LIG1       -0.0435
     25 C           1.7557   -0.3460    1.4066 C.3     1  LIG1       -0.0440
     26 C          -2.7599   -0.2267   -1.2494 C.3     1  LIG1       -0.0343
     27 C           3.2383    1.3621   -0.4996 C.3     1  LIG1       -0.0400
     28 C          -2.7319   -0.1919    1.2712 C.3     1  LIG1       -0.0343
     29 C           3.4374   -1.0899   -0.9186 C.3     1  LIG1       -0.0400
     30 C          -0.4735   -0.3479   -0.0239 C.3     1  LIG1       -0.0171
     31 C           1.1768   -0.1467   -0.0384 C.3     1  LIG1       -0.0223
     32 H          -2.3441   -2.1215    2.2142 H       1  LIG1        0.0271
     33 H           3.6343   -2.3168    0.8859 H       1  LIG1        0.0271
     34 H          -2.4063   -2.1892   -2.1355 H       1  LIG1        0.0271
     35 H           3.2798    1.9530    1.6065 H       1  LIG1        0.0271
     36 H          -3.9173   -2.0198    1.3531 H       1  LIG1        0.0271
     37 H           5.0324   -1.2364    0.5714 H       1  LIG1        0.0271
     38 H          -3.9523   -2.0539   -1.2342 H       1  LIG1        0.0271
     39 H           4.8257    1.2708    0.9986 H       1  LIG1        0.0271
     40 H          -0.3465   -2.3963   -0.9079 H       1  LIG1        0.0274
     41 H           1.3553    0.4285    2.0933 H       1  LIG1        0.0273
     42 H          -0.2376   -2.3718    0.8919 H       1  LIG1        0.0274
     43 H           1.4778   -1.3394    1.8134 H       1  LIG1        0.0273
     44 H          -3.2823    0.1451   -2.1596 H       1  LIG1        0.0306
     45 H           3.5448    2.3685   -0.8610 H       1  LIG1        0.0301
     46 H          -3.2264    0.2073    2.1857 H       1  LIG1        0.0306
     47 H           3.8893   -1.8657   -1.5751 H       1  LIG1        0.0301
     48 H          -1.7731    2.1834    2.1516 H       1  LIG1        0.0271
     49 H          -0.2307    2.2255    1.3327 H       1  LIG1        0.0271
     50 H          -0.3575    2.3139   -1.4170 H       1  LIG1        0.0271
     51 H          -1.8932    2.1467   -2.1886 H       1  LIG1        0.0271
     52 H          -3.9787    2.2582   -0.8797 H       1  LIG1        0.0271
     53 H          -3.9484    2.2655    0.9144 H       1  LIG1        0.0271
     54 C          -1.9761    2.3415   -0.0158 C.3     1  LIG1       -0.0402
     55 H          -1.9695    3.4534   -0.0217 H       1  LIG1        0.0301
     56 H           1.5438   -1.1029   -2.0142 H       1  LIG1        0.0273
     57 H           1.4359    1.3562   -1.6305 H       1  LIG1        0.0273
     58 H           3.5432    0.4474   -2.4607 H       1  LIG1        0.0271
@<TRIPOS>BOND
     1    58    19    1
     2    10    16    1
     3    51     6    1
     4    44    26    1
     5    34    22    1
     6    56    15    1
     7    57    17    1
     8    47    29    1
     9    50     6    1
    10    19    13    1
    11    19    29    1
    12    19    27    1
    13     6    16    1
    14     6    54    1
    15    16    26    1
    16    16    30    1
    17    26    22    1
    18    26    18    1
    19    38    22    1
    20    22     3    1
    21    15    29    1
    22    15     9    1
    23    15    31    1
    24    29    21    1
    25    40    24    1
    26    52     7    1
    27    45    27    1
    28    17    27    1
    29    17    31    1
    30    17    11    1
    31    27    23    1
    32    31    30    1
    33    31    25    1
    34    30    24    1
    35    30    14    1
    36    55    54    1
    37    54     7    1
    38    54     5    1
    39     7    18    1
    40     7    53    1
    41    24     3    1
    42    24    42    1
    43    18    12    1
    44    18    28    1
    45     3     1    1
    46     3    20    1
    47    21    37    1
    48    21    33    1
    49    21     4    1
    50    23    39    1
    51    23     4    1
    52    23    35    1
    53    14     5    1
    54    14    28    1
    55    14     8    1
    56     5    49    1
    57     5    48    1
    58    28    20    1
    59    28    46    1
    60    20    36    1
    61    20    32    1
    62    25     4    1
    63    25    43    1
    64    25    41    1
    65     4     2    1
