@<TRIPOS>MOLECULE
Name: Molecule_45 Comments:
 15 15 0 0 0
SMALL
GASTEIGER

@<TRIPOS>ATOM
      1 C           0.0104   -0.9120    0.0065 C.ar    1  LIG1       -0.0504
      2 C          -0.0709   -0.2018    1.2163 C.ar    1  LIG1       -0.0588
      3 C           0.0785   -0.2072   -1.2055 C.ar    1  LIG1       -0.0588
      4 C          -0.0835    1.1968    1.2096 C.ar    1  LIG1       -0.0615
      5 C           0.0656    1.1913   -1.2073 C.ar    1  LIG1       -0.0615
      6 C          -0.0154    1.8926   -0.0009 C.ar    1  LIG1       -0.0617
      7 C           0.0249   -2.4120   -0.0014 C.3     1  LIG1       -0.0397
      8 H          -0.1242   -0.7293    2.1606 H       1  LIG1        0.0620
      9 H           0.1414   -0.7423   -2.1452 H       1  LIG1        0.0620
     10 H          -0.1461    1.7412    2.1430 H       1  LIG1        0.0618
     11 H           0.1183    1.7312   -2.1438 H       1  LIG1        0.0618
     12 H          -0.0253    2.9749   -0.0040 H       1  LIG1        0.0618
     13 H           0.9635   -2.7734   -0.4718 H       1  LIG1        0.0278
     14 H          -0.0347   -2.8274    1.0271 H       1  LIG1        0.0278
     15 H          -0.8420   -2.7903   -0.5832 H       1  LIG1        0.0278
@<TRIPOS>BOND
     1     9     3    1
     2    11     5    1
     3     5     3   ar
     4     5     6   ar
     5     3     1   ar
     6    15     7    1
     7    13     7    1
     8    12     6    1
     9     7     1    1
    10     7    14    1
    11     6     4   ar
    12     1     2   ar
    13     4     2   ar
    14     4    10    1
    15     2     8    1
