@<TRIPOS>MOLECULE
Name: Molecule_15 Comments:
 15 14 0 0 0
SMALL
GASTEIGER

@<TRIPOS>ATOM
      1 C           0.0000    0.0000    1.1938 C.1     1  LIG1        0.0684
      2 C           0.0000    0.0000   -0.2782 C.3     1  LIG1        0.0490
      3 C          -0.8843    1.1529   -0.7810 C.3     1  LIG1       -0.0472
      4 C           1.4406    0.1894   -0.7810 C.3     1  LIG1       -0.0472
      5 C          -0.5563   -1.3422   -0.7810 C.3     1  LIG1       -0.0472
      6 H          -0.9019    1.1758   -1.8921 H       1  LIG1        0.0245
      7 H          -1.9289    1.0342   -0.4187 H       1  LIG1        0.0245
      8 H          -0.4989    2.1310   -0.4187 H       1  LIG1        0.0245
      9 H           1.4692    0.1931   -1.8921 H       1  LIG1        0.0245
     10 H           1.8601    1.1534   -0.4187 H       1  LIG1        0.0245
     11 H           2.0950   -0.6334   -0.4187 H       1  LIG1        0.0245
     12 H          -0.5673   -1.3689   -1.8921 H       1  LIG1        0.0245
     13 H           0.0688   -2.1876   -0.4187 H       1  LIG1        0.0245
     14 H          -1.5960   -1.4976   -0.4187 H       1  LIG1        0.0245
     15 N           0.0000    0.0000    2.3412 N.1     1  LIG1       -0.1960
@<TRIPOS>BOND
     1     6     3    1
     2     9     4    1
     3    12     5    1
     4     3     7    1
     5     3     8    1
     6     3     2    1
     7     4    10    1
     8     4    11    1
     9     4     2    1
    10     5    13    1
    11     5    14    1
    12     5     2    1
    13     2     1    1
    14     1    15    3
