@<TRIPOS>MOLECULE
Name: Molecule_28 Comments:
 8 7 0 0 0
SMALL
GASTEIGER

@<TRIPOS>ATOM
      1 C          -0.0000   -0.0000    1.7604 C.3     1  LIG1       -0.0180
      2 C          -0.0000   -0.0000    0.2361 C.3     1  LIG1        0.1879
      3 H           0.0064   -1.0424    2.1443 H       1  LIG1        0.0270
      4 CL         -0.0102    1.6744   -0.3721 Cl      1  LIG1       -0.0837
      5 H          -0.9060    0.5157    2.1443 H       1  LIG1        0.0270
      6 H           0.8996    0.5267    2.1443 H       1  LIG1        0.0270
      7 CL         -1.4449   -0.8460   -0.3721 Cl      1  LIG1       -0.0837
      8 CL          1.4552   -0.8283   -0.3721 Cl      1  LIG1       -0.0837
@<TRIPOS>BOND
     1     4     2    1
     2     7     2    1
     3     8     2    1
     4     2     1    1
     5     1     3    1
     6     1     5    1
     7     1     6    1
