@<TRIPOS>MOLECULE
Name: Molecule_32 Comments:
 9 8 0 0 0
SMALL
GASTEIGER

@<TRIPOS>ATOM
      1 C           1.2701    0.1412   -0.0000 C.2     1  LIG1       -0.1029
      2 C          -0.0157    0.5045   -0.0000 C.2     1  LIG1       -0.0942
      3 H           1.5562   -0.9063    0.0000 H       1  LIG1        0.0532
      4 H          -0.2709    1.5598    0.0000 H       1  LIG1        0.0564
      5 H           2.0467    0.8992    0.0000 H       1  LIG1        0.0532
      6 C          -1.1207   -0.5097    0.0000 C.3     1  LIG1       -0.0471
      7 H          -0.7310   -1.5504    0.0000 H       1  LIG1        0.0272
      8 H          -1.7488   -0.3660    0.9036 H       1  LIG1        0.0272
      9 H          -1.7488   -0.3660   -0.9036 H       1  LIG1        0.0272
@<TRIPOS>BOND
     1     9     6    1
     2     1     2    2
     3     1     3    1
     4     1     5    1
     5     2     4    1
     6     2     6    1
     7     6     7    1
     8     6     8    1
