@<TRIPOS>MOLECULE
Name: Molecule_33 Comments:
 6 5 0 0 0
SMALL
GASTEIGER

@<TRIPOS>ATOM
      1 C           0.0000    0.0000    0.6655 C.2     1  LIG1       -0.1058
      2 C           0.0000    0.0000   -0.6655 C.2     1  LIG1       -0.1058
      3 H          -0.0000    0.9380    1.2112 H       1  LIG1        0.0529
      4 H          -0.0000   -0.9380   -1.2112 H       1  LIG1        0.0529
      5 H           0.0000   -0.9380    1.2112 H       1  LIG1        0.0529
      6 H           0.0000    0.9380   -1.2112 H       1  LIG1        0.0529
@<TRIPOS>BOND
     1     4     2    1
     2     6     2    1
     3     2     1    2
     4     1     3    1
     5     1     5    1
