@<TRIPOS>MOLECULE
Name: Molecule_24 Comments:
 82 95 0 0 0
SMALL
GASTEIGER

@<TRIPOS>ATOM
      1 C          -1.9745   -1.4115    0.2309 C.3     1  LIG1       -0.0312
      2 C          -1.4325    0.1164    0.3335 C.3     1  LIG1       -0.0161
      3 C           0.2929    0.4712    0.2219 C.3     1  LIG1       -0.0105
      4 C           2.6717   -0.3597    1.0958 C.3     1  LIG1       -0.0217
      5 C           1.1516   -0.7388    0.8558 C.3     1  LIG1       -0.0250
      6 C           0.6363    1.8050    1.0961 C.3     1  LIG1       -0.0307
      7 C           1.0651    0.7932   -1.1738 C.3     1  LIG1       -0.0187
      8 C           2.1435    2.0740    1.3029 C.3     1  LIG1       -0.0340
      9 C           2.6096    1.1231   -0.9371 C.3     1  LIG1       -0.0281
     10 C           2.7943    0.8770    1.9968 C.3     1  LIG1       -0.0434
     11 C           3.3473   -0.0482   -0.2728 C.3     1  LIG1       -0.0284
     12 C           2.8062    2.3594   -0.0536 C.3     1  LIG1       -0.0340
     13 C           3.4304   -1.5398    1.7626 C.3     1  LIG1       -0.0439
     14 H           2.2809    2.9617    1.9629 H       1  LIG1        0.0307
     15 H           3.1072    1.3325   -1.9137 H       1  LIG1        0.0312
     16 H           0.7125   -1.0065    1.8394 H       1  LIG1        0.0315
     17 C           1.1898   -2.0087   -0.0713 C.3     1  LIG1       -0.0338
     18 C           0.0452    3.0953    0.4663 C.3     1  LIG1       -0.0465
     19 H           0.3170    1.7077    2.1472 H       1  LIG1        0.0309
     20 C           1.1070   -0.4383   -2.1205 C.3     1  LIG1       -0.0432
     21 C           0.4850    2.0907   -1.8392 C.3     1  LIG1       -0.0437
     22 H           3.8669    1.1117    2.1809 H       1  LIG1        0.0274
     23 H           2.3163    0.6912    2.9842 H       1  LIG1        0.0274
     24 C           3.3082   -1.2784   -1.1888 C.3     1  LIG1       -0.0341
     25 H           4.4170    0.2286   -0.1197 H       1  LIG1        0.0312
     26 H           3.8912    2.5667    0.0883 H       1  LIG1        0.0307
     27 C           2.1763    3.5825   -0.7261 C.3     1  LIG1       -0.0468
     28 C          -3.4598   -1.5616    0.7442 C.3     1  LIG1       -0.0343
     29 C          -2.4805    0.8731   -0.6372 C.3     1  LIG1       -0.0312
     30 C          -1.8010    0.5513    1.8218 C.3     1  LIG1       -0.0434
     31 C          -3.9668    0.7389   -0.1128 C.3     1  LIG1       -0.0343
     32 C          -3.2485    0.3855    2.2511 C.3     1  LIG1       -0.0400
     33 C          -4.4195   -0.7399   -0.1503 C.3     1  LIG1       -0.0346
     34 C          -3.6151   -1.0910    2.1881 C.3     1  LIG1       -0.0468
     35 C          -4.1284    1.2403    1.3264 C.3     1  LIG1       -0.0468
     36 H          -3.7612   -2.6338    0.7171 H       1  LIG1        0.0306
     37 H          -4.6430    1.3415   -0.7609 H       1  LIG1        0.0306
     38 H          -3.3695    0.7418    3.2988 H       1  LIG1        0.0301
     39 C          -2.0328   -2.0039   -1.2221 C.3     1  LIG1       -0.0466
     40 H          -1.3940   -2.0513    0.9233 H       1  LIG1        0.0309
     41 H          -2.2866    1.9466   -0.6905 H       1  LIG1        0.0309
     42 C          -2.5182    0.3081   -2.0979 C.3     1  LIG1       -0.0466
     43 H          -1.1692    0.0010    2.5514 H       1  LIG1        0.0274
     44 H          -1.6798    1.6363    1.9703 H       1  LIG1        0.0274
     45 H          -5.4666   -0.8334    0.2182 H       1  LIG1        0.0306
     46 C          -4.3905   -1.2665   -1.5817 C.3     1  LIG1       -0.0468
     47 H          -2.9588   -1.6859    2.8612 H       1  LIG1        0.0271
     48 H          -4.6651   -1.2339    2.5269 H       1  LIG1        0.0271
     49 H          -5.1920    1.1576    1.6421 H       1  LIG1        0.0271
     50 H          -3.8444    2.3138    1.3902 H       1  LIG1        0.0271
     51 C           0.6792    3.3240   -0.9214 C.3     1  LIG1       -0.0400
     52 H           0.2634    3.9719    1.1165 H       1  LIG1        0.0271
     53 H          -1.0439    3.0776    0.4134 H       1  LIG1        0.0271
     54 H          -0.5736    2.0436   -2.0691 H       1  LIG1        0.0274
     55 H           0.9968    2.2820   -2.8086 H       1  LIG1        0.0274
     56 H           2.6646    3.7766   -1.7066 H       1  LIG1        0.0271
     57 H           2.3305    4.4837   -0.0922 H       1  LIG1        0.0271
     58 H           0.2312    4.2238   -1.3972 H       1  LIG1        0.0301
     59 C          -2.9626   -1.1641   -2.1113 C.3     1  LIG1       -0.0402
     60 H          -2.4066   -3.0516   -1.1866 H       1  LIG1        0.0271
     61 H          -1.0846   -2.1026   -1.7313 H       1  LIG1        0.0271
     62 H          -1.5763    0.3770   -2.6328 H       1  LIG1        0.0271
     63 H          -3.2311    0.9057   -2.7089 H       1  LIG1        0.0271
     64 H          -5.0834   -0.6766   -2.2219 H       1  LIG1        0.0271
     65 H          -4.7323   -2.3251   -1.6047 H       1  LIG1        0.0271
     66 H          -2.9542   -1.5579   -3.1517 H       1  LIG1        0.0301
     67 C           1.8306   -1.6421   -1.4397 C.3     1  LIG1       -0.0343
     68 H           0.2294   -2.4348   -0.2414 H       1  LIG1        0.0307
     69 C           1.9481   -3.1738    0.5987 C.3     1  LIG1       -0.0468
     70 H           1.6504   -0.1824   -3.0574 H       1  LIG1        0.0274
     71 H           0.1294   -0.7157   -2.4660 H       1  LIG1        0.0274
     72 C           4.0627   -2.4433   -0.5121 C.3     1  LIG1       -0.0468
     73 H           3.8075   -1.0474   -2.1565 H       1  LIG1        0.0307
     74 H           1.7977   -2.5199   -2.1231 H       1  LIG1        0.0306
     75 C           3.4018   -2.7722    0.8421 C.3     1  LIG1       -0.0400
     76 H           2.9675   -1.7886    2.7434 H       1  LIG1        0.0273
     77 H           4.4907   -1.2592    1.9520 H       1  LIG1        0.0273
     78 H           1.9166   -4.0738   -0.0555 H       1  LIG1        0.0271
     79 H           1.4579   -3.4412    1.5612 H       1  LIG1        0.0271
     80 H           5.1271   -2.1629   -0.3525 H       1  LIG1        0.0271
     81 H           4.0458   -3.3381   -1.1724 H       1  LIG1        0.0271
     82 H           3.9459   -3.6122    1.3263 H       1  LIG1        0.0301
@<TRIPOS>BOND
     1    66    59    1
     2    70    20    1
     3    55    21    1
     4    63    42    1
     5    62    42    1
     6    71    20    1
     7    64    46    1
     8    73    24    1
     9    74    67    1
    10    20    67    1
    11    20     7    1
    12    59    42    1
    13    59    46    1
    14    59    39    1
    15    42    29    1
    16    54    21    1
    17    15     9    1
    18    21     7    1
    19    21    51    1
    20    61    39    1
    21    56    27    1
    22    65    46    1
    23    46    33    1
    24    67    24    1
    25    67    17    1
    26    58    51    1
    27    39    60    1
    28    39     1    1
    29    24    72    1
    30    24    11    1
    31     7     9    1
    32     7     3    1
    33    81    72    1
    34     9    11    1
    35     9    12    1
    36    51    27    1
    37    51    18    1
    38    37    31    1
    39    27    57    1
    40    27    12    1
    41    41    29    1
    42    29    31    1
    43    29     2    1
    44    72    80    1
    45    72    75    1
    46    11    25    1
    47    11     4    1
    48    68    17    1
    49    33    31    1
    50    33    45    1
    51    33    28    1
    52    31    35    1
    53    17    69    1
    54    17     5    1
    55    78    69    1
    56    12    26    1
    57    12     8    1
    58     3     2    1
    59     3     5    1
    60     3     6    1
    61     1     2    1
    62     1    28    1
    63     1    40    1
    64     2    30    1
    65    53    18    1
    66    18     6    1
    67    18    52    1
    68    69    75    1
    69    69    79    1
    70    36    28    1
    71    28    34    1
    72    75    82    1
    73    75    13    1
    74     5     4    1
    75     5    16    1
    76     4    13    1
    77     4    10    1
    78     6     8    1
    79     6    19    1
    80     8    14    1
    81     8    10    1
    82    35    50    1
    83    35    49    1
    84    35    32    1
    85    13    77    1
    86    13    76    1
    87    30    44    1
    88    30    32    1
    89    30    43    1
    90    10    22    1
    91    10    23    1
    92    34    32    1
    93    34    48    1
    94    34    47    1
    95    32    38    1
