@<TRIPOS>MOLECULE
Name: Molecule_48 Comments:
 24 24 0 0 0
SMALL
GASTEIGER

@<TRIPOS>ATOM
      1 C           0.5171   -1.3652    0.0000 C.3     1  LIG1       -0.0127
      2 C           0.0064   -2.0951    1.2613 C.3     1  LIG1       -0.0560
      3 C           0.0064   -2.0951   -1.2613 C.3     1  LIG1       -0.0560
      4 C           2.0624   -1.4556    0.0000 C.3     1  LIG1       -0.0560
      5 H          -1.1023   -2.1247    1.2987 H       1  LIG1        0.0238
      6 H           0.3669   -3.1466    1.2813 H       1  LIG1        0.0238
      7 H           0.3711   -1.5839    2.1785 H       1  LIG1        0.0238
      8 H           0.3711   -1.5839   -2.1785 H       1  LIG1        0.0238
      9 H           0.3669   -3.1466   -1.2813 H       1  LIG1        0.0238
     10 H          -1.1023   -2.1247   -1.2987 H       1  LIG1        0.0238
     11 H           2.4889   -0.9731    0.9060 H       1  LIG1        0.0238
     12 H           2.3950   -2.5165   -0.0000 H       1  LIG1        0.0238
     13 H           2.4889   -0.9731   -0.9060 H       1  LIG1        0.0238
     14 C          -0.0066    0.0880    0.0000 C.ar    1  LIG1       -0.0420
     15 C           0.8617    1.2080   -0.0000 C.ar    1  LIG1       -0.0581
     16 C          -1.4003    0.3291   -0.0000 C.ar    1  LIG1       -0.0581
     17 C           0.3474    2.5081    0.0000 C.ar    1  LIG1       -0.0615
     18 C          -1.9021    1.6332    0.0000 C.ar    1  LIG1       -0.0615
     19 C          -1.0303    2.7204   -0.0000 C.ar    1  LIG1       -0.0617
     20 H           1.9349    1.0946    0.0000 H       1  LIG1        0.0620
     21 H          -2.1036   -0.4922    0.0000 H       1  LIG1        0.0620
     22 H           1.0221    3.3547   -0.0000 H       1  LIG1        0.0618
     23 H          -2.9716    1.7998   -0.0000 H       1  LIG1        0.0618
     24 H          -1.4227    3.7291    0.0000 H       1  LIG1        0.0618
@<TRIPOS>BOND
     1     8     3    1
     2    10     3    1
     3     9     3    1
     4     3     1    1
     5    13     4    1
     6    24    19    1
     7     1    14    1
     8     1     4    1
     9     1     2    1
    10    23    18    1
    11    22    17    1
    12    21    16    1
    13    20    15    1
    14    19    18   ar
    15    19    17   ar
    16    18    16   ar
    17    17    15   ar
    18    16    14   ar
    19    15    14   ar
    20    12     4    1
    21     4    11    1
    22     2     6    1
    23     2     5    1
    24     2     7    1
